  Processing Data Dictionary (Energy+.idd) File -- Complete
  Maximum number of Alpha Args=        4500
  Maximum number of Numeric Args=       21040
  Number of Object Definitions=         689
  Number of Section Definitions=           2
  Total Number of Alpha Fields=       16712
  Total Number of Numeric Fields=       38446
  Total Number of Fields=       55158
  Processing Input Data File (in.idf) -- Start
      1 !-Generator IDFEditor 1.34
      2 !-Option OriginalOrderTop UseSpecialFormat
      3 !-NOTE: All comments with '!-' are ignored by the IDFEditor and are generated automatically.
      4 !-      Use '!' comments if they need to be retained when using the IDFEditor.
      5 ! 5ZoneAirCooled.idf
      6 ! Basic file description:  1 story building divided into 4 exterior and one interior conditioned zones and return plenum.
      7 !
      8 ! Highlights:              Electric chiller with air cooled condenser; autosized preheating and precooling water coils in the
      9 !                          outside air stream controlled to preheat and precool setpoints.
     10 !
     11 ! Simulation Location/Run: CHICAGO_IL_USA TMY2-94846, 2 design days, 2 run periods,
     12 !                          Run Control executes the run periods using the weather file
     13 !
     14 ! Location:                Chicago, IL
     15 !
     16 ! Design Days:             CHICAGO_IL_USA Annual Heating 99% Design Conditions DB, MaxDB= -17.3°C
     17 !                          CHICAGO_IL_USA Annual Cooling 1% Design Conditions, MaxDB=  31.5°C MCWB=  23.0°C
     18 !
     19 ! Run Period (Weather File): 1/1 through 12/31, CHICAGO_IL_USA TMY2-94846
     20 !
     21 ! Run Control:             Zone and System sizing with weather file run control (no design days run)
     22 !
     23 ! Building: Single floor rectangular building 100 ft x 50 ft. 5 zones - 4 exterior, 1 interior, zone height 8 feet.
     24 !           Exterior zone depth is 12 feet. There is a 2 foot high return plenum: the overall building height is
     25 !           10 feet. There are windows on all 4 facades; the south and north facades have glass doors.
     26 !           The south facing glass is shaded by overhangs. The walls are woodshingle over plywood, R11 insulation,
     27 !           and gypboard. The roof is a gravel built up roof with R-3 mineral board insulation and plywood sheathing.
     28 !           The windows are of various single and double pane construction with 3mm and 6mm glass and either 6mm or
     29 !           13mm argon or air gap.  The window to wall ratio is approxomately 0.29.
     30 !           The south wall and door have overhangs.
     31 !
     32 !           The building is oriented 30 degrees east of north.
     33 !
     34 ! Floor Area:        463.6 m2 (5000 ft2)
     35 ! Number of Stories: 1
     36 !
     37 ! Zone Description Details:
     38 !
     39 !      (0,15.2,0)                      (30.5,15.2,0)
     40 !           _____   ________                ____
     41 !         |\     ***        ****************   /|
     42 !         | \                                 / |
     43 !         |  \                 (26.8,11.6,0) /  |
     44 !         *   \_____________________________/   *
     45 !         *    |(3.7,11.6,0)               |    *
     46 !         *    |                           |    *
     47 !         *    |                           |    *
     48 !         *    |               (26.8,3.7,0)|    *
     49 !         *    |___________________________|    *
     50 !         *   / (3.7,3.7,0)                 \   *
     51 !         |  /                               \  |
     52 !         | /                                 \ |
     53 !         |/___******************___***________\|
     54 !          |       Overhang        |   |
     55 !          |_______________________|   |   window/door = *
     56 !                                  |___|
     57 !
     58 !      (0,0,0)                            (30.5,0,0)
     59 !
     60 ! Internal gains description:     lighting is 1.5 watts/ft2, office equip is 1.0 watts/ft2. There is 1 occupant
     61 !                                 per 100 ft2 of floor area. The infiltration is 0.25 air changes per hour.
     62 !
     63 ! Interzone Surfaces:             6 interzone surfaces (see diagram)
     64 ! Internal Mass:                  None
     65 ! People:                         50
     66 ! Lights:                         7500 W
     67 ! Windows:                        4 ea.: 1) Double pane clear, 3mm glass, 13mm air gap
     68 !                                        2) Double pane clear, 3mm glass, 13mm argon gap
     69 !                                        3) Double pane clear, 6mm glass, 6mm air gap
     70 !                                        4) Double pane lowE,  6mm lowE glass outside, 6mm air gap, 6mm clear glass
     71 !
     72 ! Doors:                          2 ea.:    Single pane grey,  3mm glass
     73 !
     74 ! Detached Shading:               None
     75 ! Daylight:                       None
     76 ! Natural Ventilation:            None
     77 ! Compact Schedules:              Yes
     78 !
     79 ! HVAC:                           Standard VAV system with outside air, hot water reheat coils,
     80 !                                 central chilled water cooling coil. Central Plant is single hot water
     81 !                                 boiler, electric compression chiller with air cooled condenser.
     82 !                                 All equipment is autosized. HW and ChW coils are used in the outside air
     83 !                                 stream to precondition the outside air.
     84 !
     85 ! Zonal Equipment:                AirTerminal:SingleDuct:VAV:Reheat
     86 ! Central Air Handling Equipment: Yes
     87 ! System Equipment Autosize:      Yes
     88 ! Purchased Cooling:              None
     89 ! Purchased Heating:              None
     90 ! Coils:                          Coil:Cooling:Water, Coil:Heating:Water
     91 ! Pumps:                          Pump:VariableSpeed
     92 ! Boilers:                        Boiler:HotWater
     93 ! Chillers:                       Chiller:Electric
     94 !
     95 ! Results:
     96 ! Standard Reports:               None
     97 ! Timestep or Hourly Variables:   Hourly
     98 ! Time bins Report:               None
     99 ! HTML Report:                    None
    100 ! Environmental Emissions:        None
    101 ! Utility Tariffs:                None
    102 
    103   Version,8.0;
    104 
    105   Building,
    106     Building,                !- Name
    107     30.,                     !- North Axis {deg}
    108     City,                    !- Terrain
    109     0.04,                    !- Loads Convergence Tolerance Value
    110     0.4,                     !- Temperature Convergence Tolerance Value {deltaC}
    111     FullExterior,            !- Solar Distribution
    112     25,                      !- Maximum Number of Warmup Days
    113     6;                       !- Minimum Number of Warmup Days
    114 
    115   Timestep,60;
    116 
    117   SurfaceConvectionAlgorithm:Inside,Simple;
    118 
    119   SurfaceConvectionAlgorithm:Outside,SimpleCombined;
    120 
    121   HeatBalanceAlgorithm,ConductionTransferFunction;
    122 
    123   GlobalGeometryRules,
    124     UpperLeftCorner,         !- Starting Vertex Position
    125     CounterClockWise,        !- Vertex Entry Direction
    126     relative;                !- Coordinate System
    127 
    128   ScheduleTypeLimits,
    129     Any Number;              !- Name
    130 
    131   ScheduleTypeLimits,
    132     Fraction,                !- Name
    133     0.0,                     !- Lower Limit Value
    134     1.0,                     !- Upper Limit Value
    135     CONTINUOUS;              !- Numeric Type
    136 
    137   ScheduleTypeLimits,
    138     Temperature,             !- Name
    139     -60,                     !- Lower Limit Value
    140     200,                     !- Upper Limit Value
    141     CONTINUOUS,              !- Numeric Type
    142     Temperature;             !- Unit Type
    143 
    144   ScheduleTypeLimits,
    145     Control Type,            !- Name
    146     0,                       !- Lower Limit Value
    147     4,                       !- Upper Limit Value
    148     DISCRETE;                !- Numeric Type
    149 
    150   ScheduleTypeLimits,
    151     On/Off,                  !- Name
    152     0,                       !- Lower Limit Value
    153     1,                       !- Upper Limit Value
    154     DISCRETE;                !- Numeric Type
    155 
    156   ScheduleTypeLimits,
    157     FlowRate,                !- Name
    158     0.0,                     !- Lower Limit Value
    159     10,                      !- Upper Limit Value
    160     CONTINUOUS;              !- Numeric Type
    161 
    162   RunPeriod,
    163     ,                        !- Name
    164     6,                       !- Begin Month
    165     22,                       !- Begin Day of Month
    166     6,                       !- End Month
    167     22,                       !- End Day of Month
    168     Tuesday,                 !- Day of Week for Start Day
    169     Yes,                     !- Use Weather File Holidays and Special Days
    170     Yes,                     !- Use Weather File Daylight Saving Period
    171     No,                      !- Apply Weekend Holiday Rule
    172     Yes,                     !- Use Weather File Rain Indicators
    173     Yes;                     !- Use Weather File Snow Indicators
    174 
    175 !  ExternalInterface,
    176 !    PtolemyServer;           !- Name of External Interface
    177 
    178 !  RunPeriod,
    179 !    1,                       !- Begin Month
    180 !    14,                      !- Begin Day Of Month
    181 !    1,                       !- End Month
    182 !    14,                      !- End Day Of Month
    183 !    Tuesday,                 !- Day Of Week For Start Day
    184 !    Yes,                     !- Use WeatherFile Holidays/Special Days
    185 !    Yes,                     !- Use WeatherFile DaylightSavingPeriod
    186 !    No,                      !- Apply Weekend Holiday Rule
    187 !    Yes,                     !- Use WeatherFile Rain Indicators
    188 !    Yes;                     !- Use WeatherFile Snow Indicators
    189 !  RunPeriod,
    190 !    7,                       !- Begin Month
    191 !    7,                       !- Begin Day Of Month
    192 !    7,                       !- End Month
    193 !    7,                       !- End Day Of Month
    194 !    Tuesday,                 !- Day Of Week For Start Day
    195 !    Yes,                     !- Use WeatherFile Holidays/Special Days
    196 !    Yes,                     !- Use WeatherFile DaylightSavingPeriod
    197 !    No,                      !- Apply Weekend Holiday Rule
    198 !    Yes,                     !- Use WeatherFile Rain Indicators
    199 !    Yes;                     !- Use WeatherFile Snow Indicators
    200 
    201   Site:Location,
    202     CHICAGO_IL_USA TMY2-94846,  !- Name
    203     41.78,                   !- Latitude {deg}
    204     -87.75,                  !- Longitude {deg}
    205     -6.00,                   !- Time Zone {hr}
    206     190.00;                  !- Elevation {m}
    207 
    208   SimulationControl,
    209     Yes,                     !- Do Zone Sizing Calculation
    210     Yes,                     !- Do System Sizing Calculation
    211     Yes,                     !- Do Plant Sizing Calculation
    212     No,                      !- Run Simulation for Sizing Periods
    213     Yes;                     !- Run Simulation for Weather File Run Periods
    214 
    215 ! CHICAGO_IL_USA Annual Heating 99% Design Conditions DB, MaxDB= -17.3°C
    216 
    217   SizingPeriod:DesignDay,
    218     CHICAGO_IL_USA Annual Heating 99% Design Conditions DB,  !- Name
    219     1,                       !- Month
    220     21,                      !- Day of Month
    221     WinterDesignDay,         !- Day Type
    222     -17.3,                   !- Maximum Dry-Bulb Temperature {C}
    223     0.0,                     !- Daily Dry-Bulb Temperature Range {deltaC}
    224     ,                        !- Dry-Bulb Temperature Range Modifier Type
    225     ,                        !- Dry-Bulb Temperature Range Modifier Day Schedule Name
    226     Wetbulb,                 !- Humidity Condition Type
    227     -17.3,                   !- Wetbulb or DewPoint at Maximum Dry-Bulb {C}
    228     ,                        !- Humidity Condition Day Schedule Name
    229     ,                        !- Humidity Ratio at Maximum Dry-Bulb {kgWater/kgDryAir}
    230     ,                        !- Enthalpy at Maximum Dry-Bulb {J/kg}
    231     ,                        !- Daily Wet-Bulb Temperature Range {deltaC}
    232     99063.,                  !- Barometric Pressure {Pa}
    233     4.9,                     !- Wind Speed {m/s}
    234     270,                     !- Wind Direction {deg}
    235     No,                      !- Rain Indicator
    236     No,                      !- Snow Indicator
    237     No,                      !- Daylight Saving Time Indicator
    238     ASHRAEClearSky,          !- Solar Model Indicator
    239     ,                        !- Beam Solar Day Schedule Name
    240     ,                        !- Diffuse Solar Day Schedule Name
    241     ,                        !- ASHRAE Clear Sky Optical Depth for Beam Irradiance (taub) {dimensionless}
    242     ,                        !- ASHRAE Clear Sky Optical Depth for Diffuse Irradiance (taud) {dimensionless}
    243     0.0;                     !- Sky Clearness
    244 
    245 ! CHICAGO_IL_USA Annual Cooling 1% Design Conditions, MaxDB=  31.5°C MCWB=  23.0°C
    246 
    247   SizingPeriod:DesignDay,
    248     CHICAGO_IL_USA Annual Cooling 1% Design Conditions DB/MCWB,  !- Name
    249     7,                       !- Month
    250     21,                      !- Day of Month
    251     SummerDesignDay,         !- Day Type
    252     31.5,                    !- Maximum Dry-Bulb Temperature {C}
    253     10.7,                    !- Daily Dry-Bulb Temperature Range {deltaC}
    254     ,                        !- Dry-Bulb Temperature Range Modifier Type
    255     ,                        !- Dry-Bulb Temperature Range Modifier Day Schedule Name
    256     Wetbulb,                 !- Humidity Condition Type
    257     23.0,                    !- Wetbulb or DewPoint at Maximum Dry-Bulb {C}
    258     ,                        !- Humidity Condition Day Schedule Name
    259     ,                        !- Humidity Ratio at Maximum Dry-Bulb {kgWater/kgDryAir}
    260     ,                        !- Enthalpy at Maximum Dry-Bulb {J/kg}
    261     ,                        !- Daily Wet-Bulb Temperature Range {deltaC}
    262     99063.,                  !- Barometric Pressure {Pa}
    263     5.3,                     !- Wind Speed {m/s}
    264     230,                     !- Wind Direction {deg}
    265     No,                      !- Rain Indicator
    266     No,                      !- Snow Indicator
    267     No,                      !- Daylight Saving Time Indicator
    268     ASHRAEClearSky,          !- Solar Model Indicator
    269     ,                        !- Beam Solar Day Schedule Name
    270     ,                        !- Diffuse Solar Day Schedule Name
    271     ,                        !- ASHRAE Clear Sky Optical Depth for Beam Irradiance (taub) {dimensionless}
    272     ,                        !- ASHRAE Clear Sky Optical Depth for Diffuse Irradiance (taud) {dimensionless}
    273     1.0;                     !- Sky Clearness
    274 
    275   Site:GroundTemperature:BuildingSurface,20.03,20.03,20.13,20.30,20.43,20.52,20.62,20.77,20.78,20.55,20.44,20.20;
    276 
    277  Material,
    278     Pipe Steel,              !- Name
    279     Smooth,                  !- Roughness
    280     3.00E-03,                !- Thickness {m}
    281     45.31,                   !- Conductivity {W/m-K}
    282     7833.0,                  !- Density {kg/m3}
    283     500.0,                   !- Specific Heat {J/kg-K}
    284     0.9,                     !- Thermal Absorptance
    285     0.5,                     !- Solar Absorptance
    286     0.5;                     !- Visible Absorptance
    287 
    288   Material,
    289     Pipe Insulation,         !- Name
    290     VeryRough,               !- Roughness
    291     3.0E-02,                 !- Thickness {m}
    292     4.0E-02,                 !- Conductivity {W/m-K}
    293     91.0,                    !- Density {kg/m3}
    294     836.0,                   !- Specific Heat {J/kg-K}
    295     0.9,                     !- Thermal Absorptance
    296     0.5,                     !- Solar Absorptance
    297     0.5;                     !- Visible Absorptance
    298 
    299   Material,
    300     WD10,                    !- Name
    301     MediumSmooth,            !- Roughness
    302     0.667,                   !- Thickness {m}
    303     0.115,                   !- Conductivity {W/m-K}
    304     513,                     !- Density {kg/m3}
    305     1381,                    !- Specific Heat {J/kg-K}
    306     0.9,                     !- Thermal Absorptance
    307     0.78,                    !- Solar Absorptance
    308     0.78;                    !- Visible Absorptance
    309 
    310   Material,
    311     RG01,                    !- Name
    312     Rough,                   !- Roughness
    313     1.2700000E-02,           !- Thickness {m}
    314     1.442000,                !- Conductivity {W/m-K}
    315     881.0000,                !- Density {kg/m3}
    316     1674.000,                !- Specific Heat {J/kg-K}
    317     0.9000000,               !- Thermal Absorptance
    318     0.6500000,               !- Solar Absorptance
    319     0.6500000;               !- Visible Absorptance
    320 
    321   Material,
    322     BR01,                    !- Name
    323     VeryRough,               !- Roughness
    324     9.4999997E-03,           !- Thickness {m}
    325     0.1620000,               !- Conductivity {W/m-K}
    326     1121.000,                !- Density {kg/m3}
    327     1464.000,                !- Specific Heat {J/kg-K}
    328     0.9000000,               !- Thermal Absorptance
    329     0.7000000,               !- Solar Absorptance
    330     0.7000000;               !- Visible Absorptance
    331 
    332   Material,
    333     IN46,                    !- Name
    334     VeryRough,               !- Roughness
    335     7.6200001E-02,           !- Thickness {m}
    336     2.3000000E-02,           !- Conductivity {W/m-K}
    337     24.00000,                !- Density {kg/m3}
    338     1590.000,                !- Specific Heat {J/kg-K}
    339     0.9000000,               !- Thermal Absorptance
    340     0.5000000,               !- Solar Absorptance
    341     0.5000000;               !- Visible Absorptance
    342 
    343   Material,
    344     WD01,                    !- Name
    345     MediumSmooth,            !- Roughness
    346     1.9099999E-02,           !- Thickness {m}
    347     0.1150000,               !- Conductivity {W/m-K}
    348     513.0000,                !- Density {kg/m3}
    349     1381.000,                !- Specific Heat {J/kg-K}
    350     0.9000000,               !- Thermal Absorptance
    351     0.7800000,               !- Solar Absorptance
    352     0.7800000;               !- Visible Absorptance
    353 
    354   Material,
    355     PW03,                    !- Name
    356     MediumSmooth,            !- Roughness
    357     1.2700000E-02,           !- Thickness {m}
    358     0.1150000,               !- Conductivity {W/m-K}
    359     545.0000,                !- Density {kg/m3}
    360     1213.000,                !- Specific Heat {J/kg-K}
    361     0.9000000,               !- Thermal Absorptance
    362     0.7800000,               !- Solar Absorptance
    363     0.7800000;               !- Visible Absorptance
    364 
    365   Material,
    366     IN02,                    !- Name
    367     Rough,                   !- Roughness
    368     9.0099998E-02,           !- Thickness {m}
    369     4.3000001E-02,           !- Conductivity {W/m-K}
    370     10.00000,                !- Density {kg/m3}
    371     837.0000,                !- Specific Heat {J/kg-K}
    372     0.9000000,               !- Thermal Absorptance
    373     0.7500000,               !- Solar Absorptance
    374     0.7500000;               !- Visible Absorptance
    375 
    376   Material,
    377     GP01,                    !- Name
    378     MediumSmooth,            !- Roughness
    379     1.2700000E-02,           !- Thickness {m}
    380     0.1600000,               !- Conductivity {W/m-K}
    381     801.0000,                !- Density {kg/m3}
    382     837.0000,                !- Specific Heat {J/kg-K}
    383     0.9000000,               !- Thermal Absorptance
    384     0.7500000,               !- Solar Absorptance
    385     0.7500000;               !- Visible Absorptance
    386 
    387   Material,
    388     GP02,                    !- Name
    389     MediumSmooth,            !- Roughness
    390     1.5900001E-02,           !- Thickness {m}
    391     0.1600000,               !- Conductivity {W/m-K}
    392     801.0000,                !- Density {kg/m3}
    393     837.0000,                !- Specific Heat {J/kg-K}
    394     0.9000000,               !- Thermal Absorptance
    395     0.7500000,               !- Solar Absorptance
    396     0.7500000;               !- Visible Absorptance
    397 
    398   Material,
    399     CC03,                    !- Name
    400     MediumRough,             !- Roughness
    401     0.1016000,               !- Thickness {m}
    402     1.310000,                !- Conductivity {W/m-K}
    403     2243.000,                !- Density {kg/m3}
    404     837.0000,                !- Specific Heat {J/kg-K}
    405     0.9000000,               !- Thermal Absorptance
    406     0.6500000,               !- Solar Absorptance
    407     0.6500000;               !- Visible Absorptance
    408 
    409   Material:NoMass,
    410     CP01,                    !- Name
    411     Rough,                   !- Roughness
    412     0.3670000,               !- Thermal Resistance {m2-K/W}
    413     0.9000000,               !- Thermal Absorptance
    414     0.7500000,               !- Solar Absorptance
    415     0.7500000;               !- Visible Absorptance
    416 
    417   Material:NoMass,
    418     MAT-SB-U,                !- Name
    419     Rough,                   !- Roughness
    420     0.117406666,             !- Thermal Resistance {m2-K/W}
    421     0.65,                    !- Thermal Absorptance
    422     0.65,                    !- Solar Absorptance
    423     0.65;                    !- Visible Absorptance
    424 
    425   Material:NoMass,
    426     MAT-CLNG-1,              !- Name
    427     Rough,                   !- Roughness
    428     0.652259290,             !- Thermal Resistance {m2-K/W}
    429     0.65,                    !- Thermal Absorptance
    430     0.65,                    !- Solar Absorptance
    431     0.65;                    !- Visible Absorptance
    432 
    433   Material:NoMass,
    434     MAT-FLOOR-1,             !- Name
    435     Rough,                   !- Roughness
    436     3.522199631,             !- Thermal Resistance {m2-K/W}
    437     0.65,                    !- Thermal Absorptance
    438     0.65,                    !- Solar Absorptance
    439     0.65;                    !- Visible Absorptance
    440 
    441   Material:AirGap,
    442     AL21,                    !- Name
    443     0.1570000;               !- Thermal Resistance {m2-K/W}
    444 
    445   Material:AirGap,
    446     AL23,                    !- Name
    447     0.1530000;               !- Thermal Resistance {m2-K/W}
    448 
    449   Construction,
    450     Insulated Pipe,          !- Name
    451     Pipe Insulation,         !- Outside Layer
    452     Pipe Steel;              !- Layer 2
    453 
    454   Construction,
    455     ROOF-1,                  !- Name
    456     RG01,                    !- Outside Layer
    457     BR01,                    !- Layer 2
    458     IN46,                    !- Layer 3
    459     WD01;                    !- Layer 4
    460 
    461   Construction,
    462     WALL-1,                  !- Name
    463     WD01,                    !- Outside Layer
    464     PW03,                    !- Layer 2
    465     IN02,                    !- Layer 3
    466     GP01;                    !- Layer 4
    467 
    468   Construction,
    469     CLNG-1,                  !- Name
    470     MAT-CLNG-1;              !- Outside Layer
    471 
    472   Construction,
    473     SB-U,                    !- Name
    474     MAT-SB-U;                !- Outside Layer
    475 
    476   Construction,
    477     FLOOR-1,                 !- Name
    478     MAT-FLOOR-1;             !- Outside Layer
    479 
    480   Construction,
    481     FLOOR-SLAB-1,            !- Name
    482     CC03;                    !- Outside Layer
    483 
    484   Construction,
    485     INT-WALL-1,              !- Name
    486     GP02,                    !- Outside Layer
    487     AL21,                    !- Layer 2
    488     GP02;                    !- Layer 3
    489 
    490   WindowMaterial:Gas,
    491     AIR 6MM,                 !- Name
    492     Air,                     !- Gas Type
    493     0.0063;                  !- Thickness {m}
    494 
    495   WindowMaterial:Gas,
    496     AIR 13MM,                !- Name
    497     Air,                     !- Gas Type
    498     0.0127;                  !- Thickness {m}
    499 
    500   WindowMaterial:Gas,
    501     ARGON 13MM,              !- Name
    502     Argon,                   !- Gas Type
    503     0.0127;                  !- Thickness {m}
    504 
    505   WindowMaterial:Glazing,
    506     CLEAR 3MM,               !- Name
    507     SpectralAverage,         !- Optical Data Type
    508     ,                        !- Window Glass Spectral Data Set Name
    509     0.003,                   !- Thickness {m}
    510     0.837,                   !- Solar Transmittance at Normal Incidence
    511     0.075,                   !- Front Side Solar Reflectance at Normal Incidence
    512     0.075,                   !- Back Side Solar Reflectance at Normal Incidence
    513     0.898,                   !- Visible Transmittance at Normal Incidence
    514     0.081,                   !- Front Side Visible Reflectance at Normal Incidence
    515     0.081,                   !- Back Side Visible Reflectance at Normal Incidence
    516     0.0,                     !- Infrared Transmittance at Normal Incidence
    517     0.84,                    !- Front Side Infrared Hemispherical Emissivity
    518     0.84,                    !- Back Side Infrared Hemispherical Emissivity
    519     0.9;                     !- Conductivity {W/m-K}
    520 
    521   WindowMaterial:Glazing,
    522     GREY 3MM,                !- Name
    523     SpectralAverage,         !- Optical Data Type
    524     ,                        !- Window Glass Spectral Data Set Name
    525     0.003,                   !- Thickness {m}
    526     0.626,                   !- Solar Transmittance at Normal Incidence
    527     0.061,                   !- Front Side Solar Reflectance at Normal Incidence
    528     0.061,                   !- Back Side Solar Reflectance at Normal Incidence
    529     0.611,                   !- Visible Transmittance at Normal Incidence
    530     0.061,                   !- Front Side Visible Reflectance at Normal Incidence
    531     0.061,                   !- Back Side Visible Reflectance at Normal Incidence
    532     0.0,                     !- Infrared Transmittance at Normal Incidence
    533     0.84,                    !- Front Side Infrared Hemispherical Emissivity
    534     0.84,                    !- Back Side Infrared Hemispherical Emissivity
    535     0.9;                     !- Conductivity {W/m-K}
    536 
    537   WindowMaterial:Glazing,
    538     CLEAR 6MM,               !- Name
    539     SpectralAverage,         !- Optical Data Type
    540     ,                        !- Window Glass Spectral Data Set Name
    541     0.006,                   !- Thickness {m}
    542     0.775,                   !- Solar Transmittance at Normal Incidence
    543     0.071,                   !- Front Side Solar Reflectance at Normal Incidence
    544     0.071,                   !- Back Side Solar Reflectance at Normal Incidence
    545     0.881,                   !- Visible Transmittance at Normal Incidence
    546     0.080,                   !- Front Side Visible Reflectance at Normal Incidence
    547     0.080,                   !- Back Side Visible Reflectance at Normal Incidence
    548     0.0,                     !- Infrared Transmittance at Normal Incidence
    549     0.84,                    !- Front Side Infrared Hemispherical Emissivity
    550     0.84,                    !- Back Side Infrared Hemispherical Emissivity
    551     0.9;                     !- Conductivity {W/m-K}
    552 
    553   WindowMaterial:Glazing,
    554     LoE CLEAR 6MM,           !- Name
    555     SpectralAverage,         !- Optical Data Type
    556     ,                        !- Window Glass Spectral Data Set Name
    557     0.006,                   !- Thickness {m}
    558     0.600,                   !- Solar Transmittance at Normal Incidence
    559     0.170,                   !- Front Side Solar Reflectance at Normal Incidence
    560     0.220,                   !- Back Side Solar Reflectance at Normal Incidence
    561     0.840,                   !- Visible Transmittance at Normal Incidence
    562     0.055,                   !- Front Side Visible Reflectance at Normal Incidence
    563     0.078,                   !- Back Side Visible Reflectance at Normal Incidence
    564     0.0,                     !- Infrared Transmittance at Normal Incidence
    565     0.84,                    !- Front Side Infrared Hemispherical Emissivity
    566     0.10,                    !- Back Side Infrared Hemispherical Emissivity
    567     0.9;                     !- Conductivity {W/m-K}
    568 
    569   Construction,
    570     Dbl Clr 3mm/13mm Air,    !- Name
    571     CLEAR 3MM,               !- Outside Layer
    572     AIR 13MM,                !- Layer 2
    573     CLEAR 3MM;               !- Layer 3
    574 
    575   Construction,
    576     Dbl Clr 3mm/13mm Arg,    !- Name
    577     CLEAR 3MM,               !- Outside Layer
    578     ARGON 13MM,              !- Layer 2
    579     CLEAR 3MM;               !- Layer 3
    580 
    581   Construction,
    582     Sgl Grey 3mm,            !- Name
    583     GREY 3MM;                !- Outside Layer
    584 
    585   Construction,
    586     Dbl Clr 6mm/6mm Air,     !- Name
    587     CLEAR 6MM,               !- Outside Layer
    588     AIR 6MM,                 !- Layer 2
    589     CLEAR 6MM;               !- Layer 3
    590 
    591   Construction,
    592     Dbl LoE (e2=.1) Clr 6mm/6mm Air,  !- Name
    593     LoE CLEAR 6MM,           !- Outside Layer
    594     AIR 6MM,                 !- Layer 2
    595     CLEAR 6MM;               !- Layer 3
    596 
    597   Schedule:Compact,
    598     Work Eff Sch,            !- Name
    599     Any Number,              !- Schedule Type Limits Name
    600     Through: 12/31,          !- Field 1
    601     For: Alldays,            !- Field 2
    602     Until: 24:00,0.00;       !- Field 3
    603 
    604   Schedule:Compact,
    605     Clothing Sch,            !- Name
    606     Any Number,              !- Schedule Type Limits Name
    607     Through: 12/31,          !- Field 1
    608     For: Alldays,            !- Field 2
    609     Until: 24:00,1.00;       !- Field 3
    610 
    611   Schedule:Compact,
    612     Air Velo Sch,            !- Name
    613     Any Number,              !- Schedule Type Limits Name
    614     Through: 12/31,          !- Field 1
    615     For: Alldays,            !- Field 2
    616     Until: 24:00,0.137;      !- Field 3
    617 
    618   Schedule:Compact,
    619     OCCUPY-1,                !- Name
    620     Fraction,                !- Schedule Type Limits Name
    621     Through: 12/31,          !- Field 1
    622     For: WeekDays SummerDesignDay CustomDay1 CustomDay2, !- Field 2
    623     Until: 8:00,0.0,         !- Field 3
    624     Until: 11:00,1.00,       !- Field 5
    625     Until: 12:00,0.80,       !- Field 7
    626     Until: 13:00,0.40,       !- Field 9
    627     Until: 14:00,0.80,       !- Field 11
    628     Until: 18:00,1.00,       !- Field 13
    629     Until: 19:00,0.50,       !- Field 15
    630     Until: 24:00,0.0,        !- Field 17
    631     For: Weekends WinterDesignDay Holiday, !- Field 19
    632     Until: 24:00,0.0;        !- Field 20
    633 
    634   Schedule:Compact,
    635     LIGHTS-1,                !- Name
    636     Fraction,                !- Schedule Type Limits Name
    637     Through: 12/31,          !- Field 1
    638     For: WeekDays SummerDesignDay CustomDay1 CustomDay2, !- Field 2
    639     Until: 8:00,0.05,        !- Field 3
    640     Until: 9:00,0.9,         !- Field 5
    641     Until: 10:00,0.95,       !- Field 7
    642     Until: 11:00,1.00,       !- Field 9
    643     Until: 12:00,0.95,       !- Field 11
    644     Until: 13:00,0.8,        !- Field 13
    645     Until: 14:00,0.9,        !- Field 15
    646     Until: 18:00,1.00,       !- Field 17
    647     Until: 19:00,0.60,       !- Field 19
    648     Until: 21:00,0.20,       !- Field 21
    649     Until: 24:00,0.05,       !- Field 23
    650     For: Weekends WinterDesignDay Holiday, !- Field 25
    651     Until: 24:00,0.05;       !- Field 26
    652 
    653   Schedule:Compact,
    654     EQUIP-1,                 !- Name
    655     Fraction,                !- Schedule Type Limits Name
    656     Through: 12/31,          !- Field 1
    657     For: WeekDays SummerDesignDay CustomDay1 CustomDay2, !- Field 2
    658     Until: 8:00,0.02,        !- Field 3
    659     Until: 9:00,0.4,         !- Field 5
    660     Until: 14:00,0.9,        !- Field 7
    661     Until: 15:00,0.8,        !- Field 9
    662     Until: 16:00,0.7,        !- Field 11
    663     Until: 18:00,0.5,        !- Field 13
    664     Until: 20:00,0.3,        !- Field 15
    665     Until: 24:00,0.02,       !- Field 17
    666     For: Weekends WinterDesignDay Holiday, !- Field 19
    667     Until: 24:00,0.2;        !- Field 20
    668 
    669   Schedule:Compact,
    670     OCCUPY-0,                !- Name
    671     Fraction,                !- Schedule Type Limits Name
    672     Through: 12/31,          !- Field 1
    673     For: WeekDays SummerDesignDay CustomDay1 CustomDay2, !- Field 2
    674     Until: 8:00,0,         !- Field 3
    675     Until: 18:00,1,       !- Field 13
    676     Until: 24:00,0,        !- Field 17
    677     For: Weekends WinterDesignDay Holiday, !- Field 19
    678     Until: 24:00,0;        !- Field 20
    679 
    680   Schedule:Compact,
    681     LIGHTS-0,                !- Name
    682     Fraction,                !- Schedule Type Limits Name
    683     Through: 12/31,          !- Field 1
    684     For: WeekDays SummerDesignDay CustomDay1 CustomDay2, !- Field 2
    685     Until: 8:00,0,        !- Field 3
    686     Until: 18:00,1,        !- Field 13
    687     Until: 24:00,0,       !- Field 17
    688     For: Weekends WinterDesignDay Holiday, !- Field 25
    689     Until: 24:00,0;       !- Field 26
    690 
    691   Schedule:Compact,
    692  EQUIP-0,                 !- Name
    693     Fraction,                !- Schedule Type Limits Name
    694     Through: 12/31,          !- Field 1
    695     For: WeekDays SummerDesignDay CustomDay1 CustomDay2, !- Field 2
    696     Until: 8:00,0,        !- Field 3
    697     Until: 18:00,1,        !- Field 13
    698     Until: 24:00,0,       !- Field 17
    699     For: Weekends WinterDesignDay Holiday, !- Field 19
    700     Until: 24:00,0;        !- Field 20
    701 
    702   Schedule:Compact,
    703     INFIL-SCH,               !- Name
    704     Fraction,                !- Schedule Type Limits Name
    705     Through: 3/31,           !- Field 1
    706     For: AllDays,            !- Field 2
    707     Until: 24:00,1.0,        !- Field 3
    708     Through: 10/31,          !- Field 5
    709     For: AllDays,            !- Field 6
    710     Until: 24:00,0.0,        !- Field 7
    711     Through: 12/31,          !- Field 9
    712     For: AllDays,            !- Field 10
    713     Until: 24:00,1.0;        !- Field 11
    714 
    715   Schedule:Compact,
    716     ActSchd,                 !- Name
    717     Any Number,              !- Schedule Type Limits Name
    718     Through: 12/31,          !- Field 1
    719     For: AllDays,            !- Field 2
    720     Until: 24:00,117.239997864; !- Field 3
    721 
    722 
    723   Schedule:Compact,
    724     ShadeTransSch,           !- Name
    725     Fraction,                !- Schedule Type Limits Name
    726     Through: 12/31,          !- Field 1
    727     For: AllDays,            !- Field 2
    728     Until: 24:00,0.0;        !- Field 3
    729 
    730   Zone,
    731     PLENUM-1,                !- Name
    732     0,                       !- Direction of Relative North {deg}
    733     0,                       !- X Origin {m}
    734     0,                       !- Y Origin {m}
    735     0,                       !- Z Origin {m}
    736     1,                       !- Type
    737     1,                       !- Multiplier
    738     0.609600067,             !- Ceiling Height {m}
    739     283.2;                   !- Volume {m3}
    740 
    741   BuildingSurface:Detailed,
    742     WALL-1PF,                !- Name
    743     WALL,                    !- Surface Type
    744     WALL-1,                  !- Construction Name
    745     PLENUM-1,                !- Zone Name
    746     Outdoors,                !- Outside Boundary Condition
    747     ,                        !- Outside Boundary Condition Object
    748     SunExposed,              !- Sun Exposure
    749     WindExposed,             !- Wind Exposure
    750     0.50000,                 !- View Factor to Ground
    751     4,                       !- Number of Vertices
    752     0.0,0.0,3.0,  !- X,Y,Z ==> Vertex 1 {m}
    753     0.0,0.0,2.4,  !- X,Y,Z ==> Vertex 2 {m}
    754     30.5,0.0,2.4,  !- X,Y,Z ==> Vertex 3 {m}
    755     30.5,0.0,3.0;  !- X,Y,Z ==> Vertex 4 {m}
    756 
    757   BuildingSurface:Detailed,
    758     WALL-1PR,                !- Name
    759     WALL,                    !- Surface Type
    760     WALL-1,                  !- Construction Name
    761     PLENUM-1,                !- Zone Name
    762     Outdoors,                !- Outside Boundary Condition
    763     ,                        !- Outside Boundary Condition Object
    764     SunExposed,              !- Sun Exposure
    765     WindExposed,             !- Wind Exposure
    766     0.50000,                 !- View Factor to Ground
    767     4,                       !- Number of Vertices
    768     30.5,0.0,3.0,  !- X,Y,Z ==> Vertex 1 {m}
    769     30.5,0.0,2.4,  !- X,Y,Z ==> Vertex 2 {m}
    770     30.5,15.2,2.4,  !- X,Y,Z ==> Vertex 3 {m}
    771     30.5,15.2,3.0;  !- X,Y,Z ==> Vertex 4 {m}
    772 
    773   BuildingSurface:Detailed,
    774     WALL-1PB,                !- Name
    775     WALL,                    !- Surface Type
    776     WALL-1,                  !- Construction Name
    777     PLENUM-1,                !- Zone Name
    778     Outdoors,                !- Outside Boundary Condition
    779     ,                        !- Outside Boundary Condition Object
    780     SunExposed,              !- Sun Exposure
    781     WindExposed,             !- Wind Exposure
    782     0.50000,                 !- View Factor to Ground
    783     4,                       !- Number of Vertices
    784     30.5,15.2,3.0,  !- X,Y,Z ==> Vertex 1 {m}
    785     30.5,15.2,2.4,  !- X,Y,Z ==> Vertex 2 {m}
    786     0.0,15.2,2.4,  !- X,Y,Z ==> Vertex 3 {m}
    787     0.0,15.2,3.0;  !- X,Y,Z ==> Vertex 4 {m}
    788 
    789   BuildingSurface:Detailed,
    790     WALL-1PL,                !- Name
    791     WALL,                    !- Surface Type
    792     WALL-1,                  !- Construction Name
    793     PLENUM-1,                !- Zone Name
    794     Outdoors,                !- Outside Boundary Condition
    795     ,                        !- Outside Boundary Condition Object
    796     SunExposed,              !- Sun Exposure
    797     WindExposed,             !- Wind Exposure
    798     0.50000,                 !- View Factor to Ground
    799     4,                       !- Number of Vertices
    800     0.0,15.2,3.0,  !- X,Y,Z ==> Vertex 1 {m}
    801     0.0,15.2,2.4,  !- X,Y,Z ==> Vertex 2 {m}
    802     0.0,0.0,2.4,  !- X,Y,Z ==> Vertex 3 {m}
    803     0.0,0.0,3.0;  !- X,Y,Z ==> Vertex 4 {m}
    804 
    805   BuildingSurface:Detailed,
    806     TOP-1,                   !- Name
    807     ROOF,                    !- Surface Type
    808     ROOF-1,                  !- Construction Name
    809     PLENUM-1,                !- Zone Name
    810     Outdoors,                !- Outside Boundary Condition
    811     ,                        !- Outside Boundary Condition Object
    812     SunExposed,              !- Sun Exposure
    813     WindExposed,             !- Wind Exposure
    814     0.00000,                 !- View Factor to Ground
    815     4,                       !- Number of Vertices
    816     0.0,15.2,3.0,  !- X,Y,Z ==> Vertex 1 {m}
    817     0.0,0.0,3.0,  !- X,Y,Z ==> Vertex 2 {m}
    818     30.5,0.0,3.0,  !- X,Y,Z ==> Vertex 3 {m}
    819     30.5,15.2,3.0;  !- X,Y,Z ==> Vertex 4 {m}
    820 
    821   BuildingSurface:Detailed,
    822     C1-1P,                   !- Name
    823     FLOOR,                   !- Surface Type
    824     CLNG-1,                  !- Construction Name
    825     PLENUM-1,                !- Zone Name
    826     Surface,                 !- Outside Boundary Condition
    827     C1-1,                    !- Outside Boundary Condition Object
    828     NoSun,                   !- Sun Exposure
    829     NoWind,                  !- Wind Exposure
    830     0.0,                     !- View Factor to Ground
    831     4,                       !- Number of Vertices
    832     26.8,3.7,2.4,  !- X,Y,Z ==> Vertex 1 {m}
    833     30.5,0.0,2.4,  !- X,Y,Z ==> Vertex 2 {m}
    834     0.0,0.0,2.4,  !- X,Y,Z ==> Vertex 3 {m}
    835     3.7,3.7,2.4;  !- X,Y,Z ==> Vertex 4 {m}
    836 
    837   BuildingSurface:Detailed,
    838     C2-1P,                   !- Name
    839     FLOOR,                   !- Surface Type
    840     CLNG-1,                  !- Construction Name
    841     PLENUM-1,                !- Zone Name
    842     Surface,                 !- Outside Boundary Condition
    843     C2-1,                    !- Outside Boundary Condition Object
    844     NoSun,                   !- Sun Exposure
    845     NoWind,                  !- Wind Exposure
    846     0.0,                     !- View Factor to Ground
    847     4,                       !- Number of Vertices
    848     26.8,11.6,2.4,  !- X,Y,Z ==> Vertex 1 {m}
    849     30.5,15.2,2.4,  !- X,Y,Z ==> Vertex 2 {m}
    850     30.5,0.0,2.4,  !- X,Y,Z ==> Vertex 3 {m}
    851     26.8,3.7,2.4;  !- X,Y,Z ==> Vertex 4 {m}
    852 
    853   BuildingSurface:Detailed,
    854     C3-1P,                   !- Name
    855     FLOOR,                   !- Surface Type
    856     CLNG-1,                  !- Construction Name
    857     PLENUM-1,                !- Zone Name
    858     Surface,                 !- Outside Boundary Condition
    859     C3-1,                    !- Outside Boundary Condition Object
    860     NoSun,                   !- Sun Exposure
    861     NoWind,                  !- Wind Exposure
    862     0.0,                     !- View Factor to Ground
    863     4,                       !- Number of Vertices
    864     26.8,11.6,2.4,  !- X,Y,Z ==> Vertex 1 {m}
    865     3.7,11.6,2.4,  !- X,Y,Z ==> Vertex 2 {m}
    866     0.0,15.2,2.4,  !- X,Y,Z ==> Vertex 3 {m}
    867     30.5,15.2,2.4;  !- X,Y,Z ==> Vertex 4 {m}
    868 
    869   BuildingSurface:Detailed,
    870     C4-1P,                   !- Name
    871     FLOOR,                   !- Surface Type
    872     CLNG-1,                  !- Construction Name
    873     PLENUM-1,                !- Zone Name
    874     Surface,                 !- Outside Boundary Condition
    875     C4-1,                    !- Outside Boundary Condition Object
    876     NoSun,                   !- Sun Exposure
    877     NoWind,                  !- Wind Exposure
    878     0.0,                     !- View Factor to Ground
    879     4,                       !- Number of Vertices
    880     3.7,3.7,2.4,  !- X,Y,Z ==> Vertex 1 {m}
    881     0.0,0.0,2.4,  !- X,Y,Z ==> Vertex 2 {m}
    882     0.0,15.2,2.4,  !- X,Y,Z ==> Vertex 3 {m}
    883     3.7,11.6,2.4;  !- X,Y,Z ==> Vertex 4 {m}
    884 
    885   BuildingSurface:Detailed,
    886     C5-1P,                   !- Name
    887     FLOOR,                   !- Surface Type
    888     CLNG-1,                  !- Construction Name
    889     PLENUM-1,                !- Zone Name
    890     Surface,                 !- Outside Boundary Condition
    891     C5-1,                    !- Outside Boundary Condition Object
    892     NoSun,                   !- Sun Exposure
    893     NoWind,                  !- Wind Exposure
    894     0.0,                     !- View Factor to Ground
    895     4,                       !- Number of Vertices
    896     26.8,11.6,2.4,  !- X,Y,Z ==> Vertex 1 {m}
    897     26.8,3.7,2.4,  !- X,Y,Z ==> Vertex 2 {m}
    898     3.7,3.7,2.4,  !- X,Y,Z ==> Vertex 3 {m}
    899     3.7,11.6,2.4;  !- X,Y,Z ==> Vertex 4 {m}
    900 
    901   Zone,
    902     SPACE1-1,                !- Name
    903     0,                       !- Direction of Relative North {deg}
    904     0,                       !- X Origin {m}
    905     0,                       !- Y Origin {m}
    906     0,                       !- Z Origin {m}
    907     1,                       !- Type
    908     1,                       !- Multiplier
    909     2.438400269,             !- Ceiling Height {m}
    910     239.247360229;           !- Volume {m3}
    911 
    912   ZoneInfiltration:DesignFlowRate,
    913     SPACE1-1 Infil 1,        !- Name
    914     SPACE1-1,                !- Zone or ZoneList Name
    915     INFIL-SCH,               !- Schedule Name
    916     flow/zone,               !- Design Flow Rate Calculation Method
    917     0.032,                   !- Design Flow Rate {m3/s}
    918     ,                        !- Flow per Zone Floor Area {m3/s-m2}
    919     ,                        !- Flow per Exterior Surface Area {m3/s-m2}
    920     ,                        !- Air Changes per Hour {1/hr}
    921     0,                       !- Constant Term Coefficient
    922     0,                       !- Temperature Term Coefficient
    923     0.2237,                  !- Velocity Term Coefficient
    924     0;                       !- Velocity Squared Term Coefficient
    925 
    926   People,
    927     SPACE1-1 People 1,       !- Name
    928     SPACE1-1,                !- Zone or ZoneList Name
    929     OCCUPY-0,                !- Number of People Schedule Name
    930     people,                  !- Number of People Calculation Method
    931     11,                      !- Number of People
    932     ,                        !- People per Zone Floor Area {person/m2}
    933     ,                        !- Zone Floor Area per Person {m2/person}
    934     0.3,                     !- Fraction Radiant
    935     ,                        !- Sensible Heat Fraction
    936     ActSchd,                 !- Activity Level Schedule Name
    937     3.82E-8,                 !- Carbon Dioxide Generation Rate {m3/s-W}
    938     ,                        !- Enable ASHRAE 55 Comfort Warnings
    939     zoneaveraged,            !- Mean Radiant Temperature Calculation Type
    940     ,                        !- Surface Name/Angle Factor List Name
    941     Work Eff Sch,            !- Work Efficiency Schedule Name
    942     Clothing Sch,            !- Clothing Insulation Schedule Name
    943     Air Velo Sch,            !- Air Velocity Schedule Name
    944     FANGER;                  !- Thermal Comfort Model 1 Type
    945 
    946   Lights,
    947     SPACE1-1 Lights 1,       !- Name
    948     SPACE1-1,                !- Zone or ZoneList Name
    949     LIGHTS-0,                !- Schedule Name
    950     LightingLevel,           !- Design Level Calculation Method
    951     1584,                    !- Lighting Level {W}
    952     ,                        !- Watts per Zone Floor Area {W/m2}
    953     ,                        !- Watts per Person {W/person}
    954     0.2,                     !- Return Air Fraction
    955     0.59,                    !- Fraction Radiant
    956     0.2,                     !- Fraction Visible
    957     0,                       !- Fraction Replaceable
    958     GeneralLights;           !- End-Use Subcategory
    959 
    960   ElectricEquipment,
    961     SPACE1-1 ElecEq 1,       !- Name
    962     SPACE1-1,                !- Zone or ZoneList Name
    963     EQUIP-0,                 !- Schedule Name
    964     EquipmentLevel,          !- Design Level Calculation Method
    965     1056,                    !- Design Level {W}
    966     ,                        !- Watts per Zone Floor Area {W/m2}
    967     ,                        !- Watts per Person {W/person}
    968     0,                       !- Fraction Latent
    969     0.3,                     !- Fraction Radiant
    970     0;                       !- Fraction Lost
    971 
    972   BuildingSurface:Detailed,
    973     FRONT-1,                 !- Name
    974     WALL,                    !- Surface Type
    975     WALL-1,                  !- Construction Name
    976     SPACE1-1,                !- Zone Name
    977     Outdoors,                !- Outside Boundary Condition
    978     ,                        !- Outside Boundary Condition Object
    979     SunExposed,              !- Sun Exposure
    980     WindExposed,             !- Wind Exposure
    981     0.50000,                 !- View Factor to Ground
    982     4,                       !- Number of Vertices
    983     0.0,0.0,2.4,  !- X,Y,Z ==> Vertex 1 {m}
    984     0.0,0.0,0.0,  !- X,Y,Z ==> Vertex 2 {m}
    985     30.5,0.0,0.0,  !- X,Y,Z ==> Vertex 3 {m}
    986     30.5,0.0,2.4;  !- X,Y,Z ==> Vertex 4 {m}
    987 
    988   FenestrationSurface:Detailed,
    989     WF-1,                    !- Name
    990     WINDOW,                  !- Surface Type
    991     Dbl Clr 3mm/13mm Air,    !- Construction Name
    992     FRONT-1,                 !- Building Surface Name
    993     ,                        !- Outside Boundary Condition Object
    994     0.50000,                 !- View Factor to Ground
    995     ,                        !- Shading Control Name
    996     ,                        !- Frame and Divider Name
    997     1,                       !- Multiplier
    998     4,                       !- Number of Vertices
    999     3.0,0.0,2.1,  !- X,Y,Z ==> Vertex 1 {m}
   1000     3.0,0.0,0.9,  !- X,Y,Z ==> Vertex 2 {m}
   1001     16.8,0.0,0.9,  !- X,Y,Z ==> Vertex 3 {m}
   1002     16.8,0.0,2.1;  !- X,Y,Z ==> Vertex 4 {m}
   1003 
   1004   FenestrationSurface:Detailed,
   1005     DF-1,                    !- Name
   1006     GLASSDOOR,               !- Surface Type
   1007     Sgl Grey 3mm,            !- Construction Name
   1008     FRONT-1,                 !- Building Surface Name
   1009     ,                        !- Outside Boundary Condition Object
   1010     0.50000,                 !- View Factor to Ground
   1011     ,                        !- Shading Control Name
   1012     ,                        !- Frame and Divider Name
   1013     1,                       !- Multiplier
   1014     4,                       !- Number of Vertices
   1015     21.3,0.0,2.1,  !- X,Y,Z ==> Vertex 1 {m}
   1016     21.3,0.0,0.0,  !- X,Y,Z ==> Vertex 2 {m}
   1017     23.8,0.0,0.0,  !- X,Y,Z ==> Vertex 3 {m}
   1018     23.8,0.0,2.1;  !- X,Y,Z ==> Vertex 4 {m}
   1019 
   1020   Shading:Zone:Detailed,
   1021     Main South Overhang,     !- Name
   1022     FRONT-1,                 !- Base Surface Name
   1023     ShadeTransSch,           !- Transmittance Schedule Name
   1024     4,                       !- Number of Vertices
   1025     0.0,-1.3,2.2,  !- X,Y,Z ==> Vertex 1 {m}
   1026     0.0,0.0,2.2,  !- X,Y,Z ==> Vertex 2 {m}
   1027     19.8,0.0,2.2,  !- X,Y,Z ==> Vertex 3 {m}
   1028     19.8,-1.3,2.2;  !- X,Y,Z ==> Vertex 4 {m}
   1029 
   1030   Shading:Zone:Detailed,
   1031     South Door Overhang,     !- Name
   1032     FRONT-1,                 !- Base Surface Name
   1033     ShadeTransSch,           !- Transmittance Schedule Name
   1034     4,                       !- Number of Vertices
   1035     21.0,-2.0,2.6,  !- X,Y,Z ==> Vertex 1 {m}
   1036     21.0,0.0,2.6,  !- X,Y,Z ==> Vertex 2 {m}
   1037     24.1,0.0,2.6,  !- X,Y,Z ==> Vertex 3 {m}
   1038     24.1,-2.0,2.6;  !- X,Y,Z ==> Vertex 4 {m}
   1039 
   1040   BuildingSurface:Detailed,
   1041     C1-1,                    !- Name
   1042     CEILING,                 !- Surface Type
   1043     CLNG-1,                  !- Construction Name
   1044     SPACE1-1,                !- Zone Name
   1045     Surface,                 !- Outside Boundary Condition
   1046     C1-1P,                   !- Outside Boundary Condition Object
   1047     NoSun,                   !- Sun Exposure
   1048     NoWind,                  !- Wind Exposure
   1049     0.0,                     !- View Factor to Ground
   1050     4,                       !- Number of Vertices
   1051     3.7,3.7,2.4,  !- X,Y,Z ==> Vertex 1 {m}
   1052     0.0,0.0,2.4,  !- X,Y,Z ==> Vertex 2 {m}
   1053     30.5,0.0,2.4,  !- X,Y,Z ==> Vertex 3 {m}
   1054     26.8,3.7,2.4;  !- X,Y,Z ==> Vertex 4 {m}
   1055 
   1056   BuildingSurface:Detailed,
   1057     F1-1,                    !- Name
   1058     FLOOR,                   !- Surface Type
   1059     FLOOR-SLAB-1,            !- Construction Name
   1060     SPACE1-1,                !- Zone Name
   1061     Ground,                  !- Outside Boundary Condition
   1062     ,                        !- Outside Boundary Condition Object
   1063     NoSun,                   !- Sun Exposure
   1064     NoWind,                  !- Wind Exposure
   1065     0.0,                     !- View Factor to Ground
   1066     4,                       !- Number of Vertices
   1067     26.8,3.7,0.0,  !- X,Y,Z ==> Vertex 1 {m}
   1068     30.5,0.0,0.0,  !- X,Y,Z ==> Vertex 2 {m}
   1069     0.0,0.0,0.0,  !- X,Y,Z ==> Vertex 3 {m}
   1070     3.7,3.7,0.0;  !- X,Y,Z ==> Vertex 4 {m}
   1071 
   1072   BuildingSurface:Detailed,
   1073     SB12,                    !- Name
   1074     WALL,                    !- Surface Type
   1075     INT-WALL-1,              !- Construction Name
   1076     SPACE1-1,                !- Zone Name
   1077     Surface,                 !- Outside Boundary Condition
   1078     SB21,                    !- Outside Boundary Condition Object
   1079     NoSun,                   !- Sun Exposure
   1080     NoWind,                  !- Wind Exposure
   1081     0.0,                     !- View Factor to Ground
   1082     4,                       !- Number of Vertices
   1083     30.5,0.0,2.4,  !- X,Y,Z ==> Vertex 1 {m}
   1084     30.5,0.0,0.0,  !- X,Y,Z ==> Vertex 2 {m}
   1085     26.8,3.7,0.0,  !- X,Y,Z ==> Vertex 3 {m}
   1086     26.8,3.7,2.4;  !- X,Y,Z ==> Vertex 4 {m}
   1087 
   1088   BuildingSurface:Detailed,
   1089     SB14,                    !- Name
   1090     WALL,                    !- Surface Type
   1091     INT-WALL-1,              !- Construction Name
   1092     SPACE1-1,                !- Zone Name
   1093     Surface,                 !- Outside Boundary Condition
   1094     SB41,                    !- Outside Boundary Condition Object
   1095     NoSun,                   !- Sun Exposure
   1096     NoWind,                  !- Wind Exposure
   1097     0.0,                     !- View Factor to Ground
   1098     4,                       !- Number of Vertices
   1099     3.7,3.7,2.4,  !- X,Y,Z ==> Vertex 1 {m}
   1100     3.7,3.7,0.0,  !- X,Y,Z ==> Vertex 2 {m}
   1101     0.0,0.0,0.0,  !- X,Y,Z ==> Vertex 3 {m}
   1102     0.0,0.0,2.4;  !- X,Y,Z ==> Vertex 4 {m}
   1103 
   1104   BuildingSurface:Detailed,
   1105     SB15,                    !- Name
   1106     WALL,                    !- Surface Type
   1107     INT-WALL-1,              !- Construction Name
   1108     SPACE1-1,                !- Zone Name
   1109     Surface,                 !- Outside Boundary Condition
   1110     SB51,                    !- Outside Boundary Condition Object
   1111     NoSun,                   !- Sun Exposure
   1112     NoWind,                  !- Wind Exposure
   1113     0.0,                     !- View Factor to Ground
   1114     4,                       !- Number of Vertices
   1115     26.8,3.7,2.4,  !- X,Y,Z ==> Vertex 1 {m}
   1116     26.8,3.7,0.0,  !- X,Y,Z ==> Vertex 2 {m}
   1117     3.7,3.7,0.0,  !- X,Y,Z ==> Vertex 3 {m}
   1118     3.7,3.7,2.4;  !- X,Y,Z ==> Vertex 4 {m}
   1119 
   1120   Zone,
   1121     SPACE2-1,                !- Name
   1122     0,                       !- Direction of Relative North {deg}
   1123     0,                       !- X Origin {m}
   1124     0,                       !- Y Origin {m}
   1125     0,                       !- Z Origin {m}
   1126     1,                       !- Type
   1127     1,                       !- Multiplier
   1128     2.438400269,             !- Ceiling Height {m}
   1129     103.311355591;           !- Volume {m3}
   1130 
   1131   ZoneInfiltration:DesignFlowRate,
   1132     SPACE2-1 Infil 1,        !- Name
   1133     SPACE2-1,                !- Zone or ZoneList Name
   1134     INFIL-SCH,               !- Schedule Name
   1135     flow/zone,               !- Design Flow Rate Calculation Method
   1136     0.014,                   !- Design Flow Rate {m3/s}
   1137     ,                        !- Flow per Zone Floor Area {m3/s-m2}
   1138     ,                        !- Flow per Exterior Surface Area {m3/s-m2}
   1139     ,                        !- Air Changes per Hour {1/hr}
   1140     0,                       !- Constant Term Coefficient
   1141     0,                       !- Temperature Term Coefficient
   1142     0.2237,                  !- Velocity Term Coefficient
   1143     0;                       !- Velocity Squared Term Coefficient
   1144 
   1145   People,
   1146     SPACE2-1 People 1,       !- Name
   1147     SPACE2-1,                !- Zone or ZoneList Name
   1148     OCCUPY-0,                !- Number of People Schedule Name
   1149     people,                  !- Number of People Calculation Method
   1150     5,                       !- Number of People
   1151     ,                        !- People per Zone Floor Area {person/m2}
   1152     ,                        !- Zone Floor Area per Person {m2/person}
   1153     0.3,                     !- Fraction Radiant
   1154     ,                        !- Sensible Heat Fraction
   1155     ActSchd,                 !- Activity Level Schedule Name
   1156     3.82E-8,                 !- Carbon Dioxide Generation Rate {m3/s-W}
   1157     ,                        !- Enable ASHRAE 55 Comfort Warnings
   1158     zoneaveraged,            !- Mean Radiant Temperature Calculation Type
   1159     ,                        !- Surface Name/Angle Factor List Name
   1160     Work Eff Sch,            !- Work Efficiency Schedule Name
   1161     Clothing Sch,            !- Clothing Insulation Schedule Name
   1162     Air Velo Sch,            !- Air Velocity Schedule Name
   1163     FANGER;                  !- Thermal Comfort Model 1 Type
   1164 
   1165   Lights,
   1166     SPACE2-1 Lights 1,       !- Name
   1167     SPACE2-1,                !- Zone or ZoneList Name
   1168     LIGHTS-0,                !- Schedule Name
   1169     LightingLevel,           !- Design Level Calculation Method
   1170     684,                     !- Lighting Level {W}
   1171     ,                        !- Watts per Zone Floor Area {W/m2}
   1172     ,                        !- Watts per Person {W/person}
   1173     0.2,                     !- Return Air Fraction
   1174     0.59,                    !- Fraction Radiant
   1175     0.2,                     !- Fraction Visible
   1176     0,                       !- Fraction Replaceable
   1177     GeneralLights;           !- End-Use Subcategory
   1178 
   1179   ElectricEquipment,
   1180     SPACE2-1 ElecEq 1,       !- Name
   1181     SPACE2-1,                !- Zone or ZoneList Name
   1182     EQUIP-0,                 !- Schedule Name
   1183     EquipmentLevel,          !- Design Level Calculation Method
   1184     456,                     !- Design Level {W}
   1185     ,                        !- Watts per Zone Floor Area {W/m2}
   1186     ,                        !- Watts per Person {W/person}
   1187     0,                       !- Fraction Latent
   1188     0.3,                     !- Fraction Radiant
   1189     0;                       !- Fraction Lost
   1190 
   1191   BuildingSurface:Detailed,
   1192     RIGHT-1,                 !- Name
   1193     WALL,                    !- Surface Type
   1194     WALL-1,                  !- Construction Name
   1195     SPACE2-1,                !- Zone Name
   1196     Outdoors,                !- Outside Boundary Condition
   1197     ,                        !- Outside Boundary Condition Object
   1198     SunExposed,              !- Sun Exposure
   1199     WindExposed,             !- Wind Exposure
   1200     0.50000,                 !- View Factor to Ground
   1201     4,                       !- Number of Vertices
   1202     30.5,0.0,2.4,  !- X,Y,Z ==> Vertex 1 {m}
   1203     30.5,0.0,0.0,  !- X,Y,Z ==> Vertex 2 {m}
   1204     30.5,15.2,0.0,  !- X,Y,Z ==> Vertex 3 {m}
   1205     30.5,15.2,2.4;  !- X,Y,Z ==> Vertex 4 {m}
   1206 
   1207   FenestrationSurface:Detailed,
   1208     WR-1,                    !- Name
   1209     WINDOW,                  !- Surface Type
   1210     Dbl Clr 3mm/13mm Air,    !- Construction Name
   1211     RIGHT-1,                 !- Building Surface Name
   1212     ,                        !- Outside Boundary Condition Object
   1213     0.50000,                 !- View Factor to Ground
   1214     ,                        !- Shading Control Name
   1215     ,                        !- Frame and Divider Name
   1216     1,                       !- Multiplier
   1217     4,                       !- Number of Vertices
   1218     30.5,3.8,2.1,  !- X,Y,Z ==> Vertex 1 {m}
   1219     30.5,3.8,0.9,  !- X,Y,Z ==> Vertex 2 {m}
   1220     30.5,11.4,0.9,  !- X,Y,Z ==> Vertex 3 {m}
   1221     30.5,11.4,2.1;  !- X,Y,Z ==> Vertex 4 {m}
   1222 
   1223   BuildingSurface:Detailed,
   1224     C2-1,                    !- Name
   1225     CEILING,                 !- Surface Type
   1226     CLNG-1,                  !- Construction Name
   1227     SPACE2-1,                !- Zone Name
   1228     Surface,                 !- Outside Boundary Condition
   1229     C2-1P,                   !- Outside Boundary Condition Object
   1230     NoSun,                   !- Sun Exposure
   1231     NoWind,                  !- Wind Exposure
   1232     0.0,                     !- View Factor to Ground
   1233     4,                       !- Number of Vertices
   1234     26.8,3.7,2.4,  !- X,Y,Z ==> Vertex 1 {m}
   1235     30.5,0.0,2.4,  !- X,Y,Z ==> Vertex 2 {m}
   1236     30.5,15.2,2.4,  !- X,Y,Z ==> Vertex 3 {m}
   1237     26.8,11.6,2.4;  !- X,Y,Z ==> Vertex 4 {m}
   1238 
   1239   BuildingSurface:Detailed,
   1240     F2-1,                    !- Name
   1241     FLOOR,                   !- Surface Type
   1242     FLOOR-SLAB-1,            !- Construction Name
   1243     SPACE2-1,                !- Zone Name
   1244     Ground,                  !- Outside Boundary Condition
   1245     ,                        !- Outside Boundary Condition Object
   1246     NoSun,                   !- Sun Exposure
   1247     NoWind,                  !- Wind Exposure
   1248     0.0,                     !- View Factor to Ground
   1249     4,                       !- Number of Vertices
   1250     26.8,11.6,0.0,  !- X,Y,Z ==> Vertex 1 {m}
   1251     30.5,15.2,0.0,  !- X,Y,Z ==> Vertex 2 {m}
   1252     30.5,0.0,0.0,  !- X,Y,Z ==> Vertex 3 {m}
   1253     26.8,3.7,0.0;  !- X,Y,Z ==> Vertex 4 {m}
   1254 
   1255   BuildingSurface:Detailed,
   1256     SB21,                    !- Name
   1257     WALL,                    !- Surface Type
   1258     INT-WALL-1,              !- Construction Name
   1259     SPACE2-1,                !- Zone Name
   1260     Surface,                 !- Outside Boundary Condition
   1261     SB12,                    !- Outside Boundary Condition Object
   1262     NoSun,                   !- Sun Exposure
   1263     NoWind,                  !- Wind Exposure
   1264     0.0,                     !- View Factor to Ground
   1265     4,                       !- Number of Vertices
   1266     26.8,3.7,2.4,  !- X,Y,Z ==> Vertex 1 {m}
   1267     26.8,3.7,0.0,  !- X,Y,Z ==> Vertex 2 {m}
   1268     30.5,0.0,0.0,  !- X,Y,Z ==> Vertex 3 {m}
   1269     30.5,0.0,2.4;  !- X,Y,Z ==> Vertex 4 {m}
   1270 
   1271   BuildingSurface:Detailed,
   1272     SB23,                    !- Name
   1273     WALL,                    !- Surface Type
   1274     INT-WALL-1,              !- Construction Name
   1275     SPACE2-1,                !- Zone Name
   1276     Surface,                 !- Outside Boundary Condition
   1277     SB32,                    !- Outside Boundary Condition Object
   1278     NoSun,                   !- Sun Exposure
   1279     NoWind,                  !- Wind Exposure
   1280     0.0,                     !- View Factor to Ground
   1281     4,                       !- Number of Vertices
   1282     30.5,15.2,2.4,  !- X,Y,Z ==> Vertex 1 {m}
   1283     30.5,15.2,0.0,  !- X,Y,Z ==> Vertex 2 {m}
   1284     26.8,11.6,0.0,  !- X,Y,Z ==> Vertex 3 {m}
   1285     26.8,11.6,2.4;  !- X,Y,Z ==> Vertex 4 {m}
   1286 
   1287   BuildingSurface:Detailed,
   1288     SB25,                    !- Name
   1289     WALL,                    !- Surface Type
   1290     INT-WALL-1,              !- Construction Name
   1291     SPACE2-1,                !- Zone Name
   1292     Surface,                 !- Outside Boundary Condition
   1293     SB52,                    !- Outside Boundary Condition Object
   1294     NoSun,                   !- Sun Exposure
   1295     NoWind,                  !- Wind Exposure
   1296     0.0,                     !- View Factor to Ground
   1297     4,                       !- Number of Vertices
   1298     26.8,11.6,2.4,  !- X,Y,Z ==> Vertex 1 {m}
   1299     26.8,11.6,0.0,  !- X,Y,Z ==> Vertex 2 {m}
   1300     26.8,3.7,0.0,  !- X,Y,Z ==> Vertex 3 {m}
   1301     26.8,3.7,2.4;  !- X,Y,Z ==> Vertex 4 {m}
   1302 
   1303   Zone,
   1304     SPACE3-1,                !- Name
   1305     0,                       !- Direction of Relative North {deg}
   1306     0,                       !- X Origin {m}
   1307     0,                       !- Y Origin {m}
   1308     0,                       !- Z Origin {m}
   1309     1,                       !- Type
   1310     1,                       !- Multiplier
   1311     2.438400269,             !- Ceiling Height {m}
   1312     239.247360229;           !- Volume {m3}
   1313 
   1314   ZoneInfiltration:DesignFlowRate,
   1315     SPACE3-1 Infil 1,        !- Name
   1316     SPACE3-1,                !- Zone or ZoneList Name
   1317     INFIL-SCH,               !- Schedule Name
   1318     flow/zone,               !- Design Flow Rate Calculation Method
   1319     0.032,                   !- Design Flow Rate {m3/s}
   1320     ,                        !- Flow per Zone Floor Area {m3/s-m2}
   1321     ,                        !- Flow per Exterior Surface Area {m3/s-m2}
   1322     ,                        !- Air Changes per Hour {1/hr}
   1323     0,                       !- Constant Term Coefficient
   1324     0,                       !- Temperature Term Coefficient
   1325     0.2237,                  !- Velocity Term Coefficient
   1326     0;                       !- Velocity Squared Term Coefficient
   1327 
   1328   People,
   1329     SPACE3-1 People 1,       !- Name
   1330     SPACE3-1,                !- Zone or ZoneList Name
   1331     OCCUPY-0,                !- Number of People Schedule Name
   1332     people,                  !- Number of People Calculation Method
   1333     11,                      !- Number of People
   1334     ,                        !- People per Zone Floor Area {person/m2}
   1335     ,                        !- Zone Floor Area per Person {m2/person}
   1336     0.3,                     !- Fraction Radiant
   1337     ,                        !- Sensible Heat Fraction
   1338     ActSchd,                 !- Activity Level Schedule Name
   1339     3.82E-8,                 !- Carbon Dioxide Generation Rate {m3/s-W}
   1340     ,                        !- Enable ASHRAE 55 Comfort Warnings
   1341     zoneaveraged,            !- Mean Radiant Temperature Calculation Type
   1342     ,                        !- Surface Name/Angle Factor List Name
   1343     Work Eff Sch,            !- Work Efficiency Schedule Name
   1344     Clothing Sch,            !- Clothing Insulation Schedule Name
   1345     Air Velo Sch,            !- Air Velocity Schedule Name
   1346     FANGER;                  !- Thermal Comfort Model 1 Type
   1347 
   1348   Lights,
   1349     SPACE3-1 Lights 1,       !- Name
   1350     SPACE3-1,                !- Zone or ZoneList Name
   1351     LIGHTS-0,                !- Schedule Name
   1352     LightingLevel,           !- Design Level Calculation Method
   1353     1584,                    !- Lighting Level {W}
   1354     ,                        !- Watts per Zone Floor Area {W/m2}
   1355     ,                        !- Watts per Person {W/person}
   1356     0.2,                     !- Return Air Fraction
   1357     0.59,                    !- Fraction Radiant
   1358     0.2,                     !- Fraction Visible
   1359     0,                       !- Fraction Replaceable
   1360     GeneralLights;           !- End-Use Subcategory
   1361 
   1362   ElectricEquipment,
   1363     SPACE3-1 ElecEq 1,       !- Name
   1364     SPACE3-1,                !- Zone or ZoneList Name
   1365     EQUIP-0,                 !- Schedule Name
   1366     EquipmentLevel,          !- Design Level Calculation Method
   1367     1056,                    !- Design Level {W}
   1368     ,                        !- Watts per Zone Floor Area {W/m2}
   1369     ,                        !- Watts per Person {W/person}
   1370     0,                       !- Fraction Latent
   1371     0.3,                     !- Fraction Radiant
   1372     0;                       !- Fraction Lost
   1373 
   1374   BuildingSurface:Detailed,
   1375     BACK-1,                  !- Name
   1376     WALL,                    !- Surface Type
   1377     WALL-1,                  !- Construction Name
   1378     SPACE3-1,                !- Zone Name
   1379     Outdoors,                !- Outside Boundary Condition
   1380     ,                        !- Outside Boundary Condition Object
   1381     SunExposed,              !- Sun Exposure
   1382     WindExposed,             !- Wind Exposure
   1383     0.50000,                 !- View Factor to Ground
   1384     4,                       !- Number of Vertices
   1385     30.5,15.2,2.4,  !- X,Y,Z ==> Vertex 1 {m}
   1386     30.5,15.2,0.0,  !- X,Y,Z ==> Vertex 2 {m}
   1387     0.0,15.2,0.0,  !- X,Y,Z ==> Vertex 3 {m}
   1388     0.0,15.2,2.4;  !- X,Y,Z ==> Vertex 4 {m}
   1389 
   1390   FenestrationSurface:Detailed,
   1391     WB-1,                    !- Name
   1392     WINDOW,                  !- Surface Type
   1393     Dbl Clr 3mm/13mm Air,    !- Construction Name
   1394     BACK-1,                  !- Building Surface Name
   1395     ,                        !- Outside Boundary Condition Object
   1396     0.50000,                 !- View Factor to Ground
   1397     ,                        !- Shading Control Name
   1398     ,                        !- Frame and Divider Name
   1399     1,                       !- Multiplier
   1400     4,                       !- Number of Vertices
   1401     27.4,15.2,2.1,  !- X,Y,Z ==> Vertex 1 {m}
   1402     27.4,15.2,0.9,  !- X,Y,Z ==> Vertex 2 {m}
   1403     13.7,15.2,0.9,  !- X,Y,Z ==> Vertex 3 {m}
   1404     13.7,15.2,2.1;  !- X,Y,Z ==> Vertex 4 {m}
   1405 
   1406   FenestrationSurface:Detailed,
   1407     DB-1,                    !- Name
   1408     GLASSDOOR,               !- Surface Type
   1409     Sgl Grey 3mm,            !- Construction Name
   1410     BACK-1,                  !- Building Surface Name
   1411     ,                        !- Outside Boundary Condition Object
   1412     0.50000,                 !- View Factor to Ground
   1413     ,                        !- Shading Control Name
   1414     ,                        !- Frame and Divider Name
   1415     1,                       !- Multiplier
   1416     4,                       !- Number of Vertices
   1417     9.1,15.2,2.1,  !- X,Y,Z ==> Vertex 1 {m}
   1418     9.1,15.2,0.0,  !- X,Y,Z ==> Vertex 2 {m}
   1419     7.0,15.2,0.0,  !- X,Y,Z ==> Vertex 3 {m}
   1420     7.0,15.2,2.1;  !- X,Y,Z ==> Vertex 4 {m}
   1421 
   1422   BuildingSurface:Detailed,
   1423     C3-1,                    !- Name
   1424     CEILING,                 !- Surface Type
   1425     CLNG-1,                  !- Construction Name
   1426     SPACE3-1,                !- Zone Name
   1427     Surface,                 !- Outside Boundary Condition
   1428     C3-1P,                   !- Outside Boundary Condition Object
   1429     NoSun,                   !- Sun Exposure
   1430     NoWind,                  !- Wind Exposure
   1431     0.0,                     !- View Factor to Ground
   1432     4,                       !- Number of Vertices
   1433     30.5,15.2,2.4,  !- X,Y,Z ==> Vertex 1 {m}
   1434     0.0,15.2,2.4,  !- X,Y,Z ==> Vertex 2 {m}
   1435     3.7,11.6,2.4,  !- X,Y,Z ==> Vertex 3 {m}
   1436     26.8,11.6,2.4;  !- X,Y,Z ==> Vertex 4 {m}
   1437 
   1438   BuildingSurface:Detailed,
   1439     F3-1,                    !- Name
   1440     FLOOR,                   !- Surface Type
   1441     FLOOR-SLAB-1,            !- Construction Name
   1442     SPACE3-1,                !- Zone Name
   1443     Ground,                  !- Outside Boundary Condition
   1444     ,                        !- Outside Boundary Condition Object
   1445     NoSun,                   !- Sun Exposure
   1446     NoWind,                  !- Wind Exposure
   1447     0.0,                     !- View Factor to Ground
   1448     4,                       !- Number of Vertices
   1449     26.8,11.6,0.0,  !- X,Y,Z ==> Vertex 1 {m}
   1450     3.7,11.6,0.0,  !- X,Y,Z ==> Vertex 2 {m}
   1451     0.0,15.2,0.0,  !- X,Y,Z ==> Vertex 3 {m}
   1452     30.5,15.2,0.0;  !- X,Y,Z ==> Vertex 4 {m}
   1453 
   1454   BuildingSurface:Detailed,
   1455     SB32,                    !- Name
   1456     WALL,                    !- Surface Type
   1457     INT-WALL-1,              !- Construction Name
   1458     SPACE3-1,                !- Zone Name
   1459     Surface,                 !- Outside Boundary Condition
   1460     SB23,                    !- Outside Boundary Condition Object
   1461     NoSun,                   !- Sun Exposure
   1462     NoWind,                  !- Wind Exposure
   1463     0.0,                     !- View Factor to Ground
   1464     4,                       !- Number of Vertices
   1465     26.8,11.6,2.4,  !- X,Y,Z ==> Vertex 1 {m}
   1466     26.8,11.6,0.0,  !- X,Y,Z ==> Vertex 2 {m}
   1467     30.5,15.2,0.0,  !- X,Y,Z ==> Vertex 3 {m}
   1468     30.5,15.2,2.4;  !- X,Y,Z ==> Vertex 4 {m}
   1469 
   1470   BuildingSurface:Detailed,
   1471     SB34,                    !- Name
   1472     WALL,                    !- Surface Type
   1473     INT-WALL-1,              !- Construction Name
   1474     SPACE3-1,                !- Zone Name
   1475     Surface,                 !- Outside Boundary Condition
   1476     SB43,                    !- Outside Boundary Condition Object
   1477     NoSun,                   !- Sun Exposure
   1478     NoWind,                  !- Wind Exposure
   1479     0.0,                     !- View Factor to Ground
   1480     4,                       !- Number of Vertices
   1481     0.0,15.2,2.4,  !- X,Y,Z ==> Vertex 1 {m}
   1482     0.0,15.2,0.0,  !- X,Y,Z ==> Vertex 2 {m}
   1483     3.7,11.6,0.0,  !- X,Y,Z ==> Vertex 3 {m}
   1484     3.7,11.6,2.4;  !- X,Y,Z ==> Vertex 4 {m}
   1485 
   1486   BuildingSurface:Detailed,
   1487     SB35,                    !- Name
   1488     WALL,                    !- Surface Type
   1489     INT-WALL-1,              !- Construction Name
   1490     SPACE3-1,                !- Zone Name
   1491     Surface,                 !- Outside Boundary Condition
   1492     SB53,                    !- Outside Boundary Condition Object
   1493     NoSun,                   !- Sun Exposure
   1494     NoWind,                  !- Wind Exposure
   1495     0.0,                     !- View Factor to Ground
   1496     4,                       !- Number of Vertices
   1497     3.7,11.6,2.4,  !- X,Y,Z ==> Vertex 1 {m}
   1498     3.7,11.6,0.0,  !- X,Y,Z ==> Vertex 2 {m}
   1499     26.8,11.6,0.0,  !- X,Y,Z ==> Vertex 3 {m}
   1500     26.8,11.6,2.4;  !- X,Y,Z ==> Vertex 4 {m}
   1501 
   1502   Zone,
   1503     SPACE4-1,                !- Name
   1504     0,                       !- Direction of Relative North {deg}
   1505     0,                       !- X Origin {m}
   1506     0,                       !- Y Origin {m}
   1507     0,                       !- Z Origin {m}
   1508     1,                       !- Type
   1509     1,                       !- Multiplier
   1510     2.438400269,             !- Ceiling Height {m}
   1511     103.311355591;           !- Volume {m3}
   1512 
   1513   ZoneInfiltration:DesignFlowRate,
   1514     SPACE4-1 Infil 1,        !- Name
   1515     SPACE4-1,                !- Zone or ZoneList Name
   1516     INFIL-SCH,               !- Schedule Name
   1517     flow/zone,               !- Design Flow Rate Calculation Method
   1518     0.014,                   !- Design Flow Rate {m3/s}
   1519     ,                        !- Flow per Zone Floor Area {m3/s-m2}
[...]
   3752 !    CW Setpoint Calling Manager, !- Name
   3753 !    InsideHVACSystemIterationLoop, !- EnergyPlus Model Calling Point AfterPredictorAfterHVACManagers
   3754 !    SetCWSPFunction; !- Program Name 1
   3755 
   3756 !  EnergyManagementSystem:Program,
   3757 !    SetCWSPFunction, !- Name
   3758 !    IF (Hour > 24) && (Hour < 24),
   3759 !      SET CWControl = 7.2, !- Program Line 1
   3760 !    ELSE,
   3761 !      SET CWControl = 7.2, !- Program Line 1
   3762 !    ENDIF;
   3763 
   3764 !======================SETPOINT=============================================
   3765   EnergyManagementSystem:Actuator,
   3766     Space1HeatSP,
   3767     SPACE1-1,
   3768     Zone Temperature Control,
   3769     Heating Setpoint;
   3770 
   3771   EnergyManagementSystem:Actuator,
   3772     Space1CoolSP,
   3773     SPACE1-1,
   3774     Zone Temperature Control,
   3775     Cooling Setpoint;
   3776 
   3777   EnergyManagementSystem:Actuator,
   3778     Space2HeatSP,
   3779     SPACE2-1,
   3780     Zone Temperature Control,
   3781     Heating Setpoint;
   3782 
   3783   EnergyManagementSystem:Actuator,
   3784     Space2CoolSP,
   3785     SPACE2-1,
   3786     Zone Temperature Control,
   3787     Cooling Setpoint;
   3788 
   3789   EnergyManagementSystem:Actuator,
   3790     Space3HeatSP,
   3791     SPACE3-1,
   3792     Zone Temperature Control,
   3793     Heating Setpoint;
   3794 
   3795   EnergyManagementSystem:Actuator,
   3796     Space3CoolSP,
   3797     SPACE3-1,
   3798     Zone Temperature Control,
   3799     Cooling Setpoint;
   3800 
   3801   EnergyManagementSystem:Actuator,
   3802     Space4HeatSP,
   3803     SPACE4-1,
   3804     Zone Temperature Control,
   3805     Heating Setpoint;
   3806 
   3807   EnergyManagementSystem:Actuator,
   3808     Space4CoolSP,
   3809     SPACE4-1,
   3810     Zone Temperature Control,
   3811     Cooling Setpoint;
   3812 
   3813   EnergyManagementSystem:Actuator,
   3814     Space5HeatSP,
   3815     SPACE5-1,
   3816     Zone Temperature Control,
   3817     Heating Setpoint;
   3818 
   3819   EnergyManagementSystem:Actuator,
   3820     Space5CoolSP,
   3821     SPACE5-1,
   3822     Zone Temperature Control,
   3823     Cooling Setpoint;
   3824 
   3825 !======================DISTURBANCE=============================================
   3826 !======================WEATHER=============================================
   3827 
   3828   EnergyManagementSystem:Sensor,
   3829     OutdoorTemp, !- Name
   3830     Environment, !- Output:Variable Index Key Name
   3831     Site Outdoor Air Drybulb Temperature; !- Output:Variable Name
   3832 
   3833   EnergyManagementSystem:Actuator,
   3834     OutdoorTemperature,
   3835     Environment,
   3836     Weather Data,
   3837     Outdoor Dry Bulb;
   3838 
   3839   EnergyManagementSystem:Actuator,
   3840     OutdoorDewPoint,
   3841     Environment,
   3842     Weather Data,
   3843     Outdoor Dew Point;
   3844 
   3845   EnergyManagementSystem:Actuator,
   3846     OutdoorRelativeHumidity,
   3847     Environment,
   3848     Weather Data,
   3849     Outdoor Relative Humidity;
   3850 
   3851   EnergyManagementSystem:Actuator,
   3852     DiffuseSolar,
   3853     Environment,
   3854     Weather Data,
   3855     Diffuse Solar;
   3856 
   3857   EnergyManagementSystem:Actuator,
   3858     DirectSolar,
   3859     Environment,
   3860     Weather Data,
   3861     Direct Solar;
   3862 
   3863   EnergyManagementSystem:ProgramCallingManager,
   3864     Weather Calling Manager, !- Name
   3865     BeginNewEnvironment, !- EnergyPlus Model Calling Point
   3866     SetWeatherFunction; !- Program Name 1
   3867 
   3868   EnergyManagementSystem:Program,
   3869     SetWeatherFunction, !- Name
   3870     Set OutdoorTemperature = 35, !- Program Line 1
   3871     Set OutdoorDewPoint = 14, !- Program Line 2
   3872     Set OutdoorRelativeHumidity = 60, !- Program Line 3
   3873     Set DiffuseSolar = 0, !- Program Line 3
   3874     Set DirectSolar = 0; !- Program Line 3
   3875 
   3876 !======================COMFORT=============================================
   3877   EnergyManagementSystem:Sensor,
   3878     ppd1, !- Name
   3879     SPACE1-1 PEOPLE 1, !- Output:Variable Index Key Name
   3880     Zone Thermal Comfort Fanger Model PPD; !- Output:Variable Name
   3881 
   3882   EnergyManagementSystem:Sensor,
   3883     ppd2, !- Name
   3884     SPACE2-1 PEOPLE 1, !- Output:Variable Index Key Name
   3885     Zone Thermal Comfort Fanger Model PPD; !- Output:Variable Name
   3886 
   3887   EnergyManagementSystem:Sensor,
   3888     ppd3, !- Name
   3889     SPACE3-1 PEOPLE 1, !- Output:Variable Index Key Name
   3890     Zone Thermal Comfort Fanger Model PPD; !- Output:Variable Name
   3891 
   3892   EnergyManagementSystem:Sensor,
   3893     ppd4, !- Name
   3894     SPACE4-1 PEOPLE 1, !- Output:Variable Index Key Name
   3895     Zone Thermal Comfort Fanger Model PPD; !- Output:Variable Name
   3896 
   3897   EnergyManagementSystem:Sensor,
   3898     ppd5, !- Name
   3899     SPACE5-1 PEOPLE 1, !- Output:Variable Index Key Name
   3900     Zone Thermal Comfort Fanger Model PPD; !- Output:Variable Name
   3901 
   3902 
   3903   EnergyManagementSystem:Sensor,
   3904     occ1, !- Name
   3905     SPACE1-1, !- Output:Variable Index Key Name
   3906     Zone People Occupant Count; !- Output:Variable Name
   3907 
   3908   EnergyManagementSystem:Sensor,
   3909     occ2, !- Name
   3910     SPACE2-1, !- Output:Variable Index Key Name
   3911     Zone People Occupant Count; !- Output:Variable Name
   3912 
   3913   EnergyManagementSystem:Sensor,
   3914     occ3, !- Name
   3915     SPACE3-1, !- Output:Variable Index Key Name
   3916     Zone People Occupant Count; !- Output:Variable Name
   3917 
   3918   EnergyManagementSystem:Sensor,
   3919     occ4, !- Name
   3920     SPACE4-1, !- Output:Variable Index Key Name
   3921     Zone People Occupant Count; !- Output:Variable Name
   3922 
   3923   EnergyManagementSystem:Sensor,
   3924     occ5, !- Name
   3925     SPACE5-1, !- Output:Variable Index Key Name
   3926     Zone People Occupant Count; !- Output:Variable Name
   3927 
   3928   EnergyManagementSystem:ProgramCallingManager,
   3929     Comfort Calling Manager, !- Name
   3930     InsideHVACSystemIterationLoop, !- EnergyPlus Model Calling Point
   3931     SetComfortFunction; !- Program Name 1
   3932 
   3933   EnergyManagementSystem:Program,
   3934     SetComfortFunction, !- Name
   3935     Set TotPeopl = (occ1 + occ2 + occ3 + occ4 + occ5),
   3936     Set SumNum = occ1*ppd1 + occ2*ppd2 + occ3*ppd3 + occ4*ppd4 + occ5*ppd5,
   3937     Set OverallComfort = SumNum / TotPeopl;
   3938 
   3939   EnergyManagementSystem:GlobalVariable,
   3940     OverallComfort;
   3941 
   3942   EnergyManagementSystem:OutputVariable,
   3943     Weighted Average Building PPD [%], ! Name
   3944     OverallComfort, ! EMS Variable Name
   3945     Averaged, ! Type of Data in Variable
   3946     ZoneTimeStep; ! Update Frequency
   3947 
   3948 !======================START:EXTERNAL INTERFACE=============================================
   3949 !======================SCHEDULES=============================================
   3950 
   3951   !ExternalInterface:Schedule,
   3952   !  ThermostSch,                !- Name
   3953   !  Control Type,               !- ScheduleType
   3954   !  4;                          !- Initial value, used during warm-up
   3955 
   3956   !ExternalInterface:Schedule,
   3957   !  CoolTempSch,                !- Name
   3958   !  Temperature,                !- ScheduleType
   3959   !  22;                         !- Initial value, used during warm-up
   3960 
   3961   !ExternalInterface:Schedule,
   3962   !  HeatTempSch,                !- Name
   3963   !  Temperature,                !- ScheduleType
   3964   !  20;                         !- Initial value, used during warm-up
   3965 
   3966 !======================START:OUTPUTS=============================================
   3967 !======================AIR TEMPERATURE=============================================
   3968   ! TEMPERATURE ZONES
   3969   Output:Variable,Environment,Site Outdoor Air Drybulb Temperature,timestep;
   3970   Output:Variable,SPACE1-1,Zone Air Temperature,timestep;
   3971   Output:Variable,SPACE2-1,Zone Air Temperature,timestep;
   3972   Output:Variable,SPACE3-1,Zone Air Temperature,timestep;
   3973   Output:Variable,SPACE4-1,Zone Air Temperature,timestep;
   3974   Output:Variable,SPACE5-1,Zone Air Temperature,timestep;
   3975   Output:Variable,PLENUM-1,Zone Air Temperature,timestep;
   3976 
   3977 !======================AIR FLOW=============================================
   3978   ! AIR FLOW RATIO
   3979   Output:Variable,SPACE1-1 VAV Reheat,Zone Air Terminal VAV Damper Position,timestep;
   3980   Output:Variable,SPACE2-1 VAV Reheat,Zone Air Terminal VAV Damper Position,timestep;
   3981   Output:Variable,SPACE3-1 VAV Reheat,Zone Air Terminal VAV Damper Position,timestep;
   3982   Output:Variable,SPACE4-1 VAV Reheat,Zone Air Terminal VAV Damper Position,timestep;
   3983   Output:Variable,SPACE5-1 VAV Reheat,Zone Air Terminal VAV Damper Position,timestep;
   3984 
   3985 !======================FAN POWER=============================================
   3986   ! FAN POWER
   3987   Output:Variable,CW Circ pump,Pump Electric Power,timestep;
   3988   Output:Variable,HW Circ pump,Pump Electric Power,timestep;
   3989   Output:Variable,supply fan 1,Fan Electric Power,timestep;
   3990   Output:Variable,Central Chiller,Chiller Electric Power,timestep;
   3991 
   3992 !======================NODES=============================================
   3993   ! NODE SETTINGS
   3994   Output:Variable,CW Demand Inlet Node,System Node Temperature,timestep;
   3995   Output:Variable,CW Demand Entrance Pipe Outlet Node,System Node Temperature,timestep;
   3996   Output:Variable,Supply Side Exit Pipe Inlet Node,System Node Temperature,timestep;
   3997   Output:Variable,CW Supply Outlet Node,System Node Temperature,timestep;
   3998   Output:Variable,CW Demand Outlet Node,System Node Temperature,timestep;
   3999   Output:Variable,CW Demand Exit Pipe Inlet Node,System Node Temperature,timestep;
   4000   Output:Variable,Chilled Water Loop, Plant Supply Side Inlet Temperature,timestep;
   4001   Output:Variable,Chilled Water Loop, Plant Supply Side Outlet Temperature,timestep;
   4002   Output:Variable,Central Chiller Outlet Node, System Node Temperature,timestep;
   4003   Output:Variable,Central Chiller Inlet Node, System Node Temperature,timestep;
   4004 
   4005 
   4006 !======================NODES=============================================
   4007   Output:Variable,Environment,Site Outdoor Air Wetbulb Temperature,timestep;
   4008   Output:Variable,Environment,Site Outdoor Air Drybulb Temperature,timestep;
   4009   Output:Variable,Environment,Site Outdoor Air Dewpoint Temperature,timestep;
   4010   Output:Variable,Environment,Site Diffuse Solar Radiation Rate per Area,timestep;
   4011   Output:Variable,Environment,Site Direct Solar Radiation Rate per Area,timestep;
   4012 
   4013 !======================COMFORT=============================================
   4014   Output:Variable,SPACE1-1 People 1,Zone Thermal Comfort Fanger Model PPD,timestep;
   4015   Output:Variable,SPACE2-1 People 1,Zone Thermal Comfort Fanger Model PPD,timestep;
   4016   Output:Variable,SPACE3-1 People 1,Zone Thermal Comfort Fanger Model PPD,timestep;
   4017   Output:Variable,SPACE4-1 People 1,Zone Thermal Comfort Fanger Model PPD,timestep;
   4018   Output:Variable,SPACE5-1 People 1,Zone Thermal Comfort Fanger Model PPD,timestep;
   4019 
   4020   Output:Variable,SPACE1-1,Zone People Occupant Count,timestep;
   4021   Output:Variable,SPACE2-1,Zone People Occupant Count,timestep;
   4022   Output:Variable,SPACE3-1,Zone People Occupant Count,timestep;
   4023   Output:Variable,SPACE4-1,Zone People Occupant Count,timestep;
   4024   Output:Variable,SPACE5-1,Zone People Occupant Count,timestep;
   4025 
   4026   Output:Variable,EMS,Weighted Average Building PPD,timestep;
   4027 
   4028 !======================START:METERS=============================================
   4029 
   4030   Output:Meter:MeterFileOnly,Electricity:Facility,monthly;
   4031   Output:Meter:MeterFileOnly,Electricity:Building,monthly;
   4032   Output:Meter:MeterFileOnly,InteriorLights:Electricity,monthly;
   4033   Output:Meter:MeterFileOnly,Electricity:HVAC,monthly;
   4034   Output:Meter:MeterFileOnly,Electricity:Plant,monthly;
   4035   Output:Meter:MeterFileOnly,Gas:Facility,monthly;
   4036   Output:Meter:MeterFileOnly,Gas:Plant,monthly;
   4037   Output:Meter:MeterFileOnly,Electricity:Facility,runperiod;
   4038   Output:Meter:MeterFileOnly,Electricity:Building,runperiod;
   4039   Output:Meter:MeterFileOnly,InteriorLights:Electricity,runperiod;
   4040   Output:Meter:MeterFileOnly,Electricity:HVAC,runperiod;
   4041   Output:Meter:MeterFileOnly,Electricity:Plant,runperiod;
   4042   Output:Meter:MeterFileOnly,Gas:Facility,runperiod;
   4043   Output:Meter:MeterFileOnly,Gas:Plant,runperiod;
   4044   Output:Meter:MeterFileOnly,MyGeneralLights,monthly;
   4045   Output:Meter:MeterFileOnly,MyGeneralLights,runperiod;
   4046   Output:Meter:MeterFileOnly,MyBuildingElectric,monthly;
   4047   Output:Meter:MeterFileOnly,MyBuildingElectric,runperiod;
   4048   Output:Meter:MeterFileOnly,MyBuildingOther,monthly;
   4049   Output:Meter:MeterFileOnly,MyBuildingOther,runperiod;
   4050 
   4051 ! The following custom meters are set up to illustrate the capabilities
   4052 ! of custom meters.
   4053 ! Custom Meter "MyGeneralLights" duplicates the InteriorLights:Electricity meter.
   4054 ! Custom Meter "MyBuildingElectric" duplicates the Electricity:Building meter (by specifying that meter).
   4055 ! Custom Meter (Decrement) "MyBuildingOther" uses Electricity:Building as its source meter
   4056 !   and subtracts out the values for MyGeneralLights (aka InteriorLights:Electricity).  The
   4057 !   resultant value for MyBuildingOther should be equal to the value for the meters
   4058 !   Electricity:Building - InteriorLights:Electricity (aka MyGeneralLights)
   4059 
   4060   Meter:Custom,
   4061     MyGeneralLights,         !- Name
   4062     Electricity,             !- Fuel Type
   4063     SPACE1-1 Lights 1,       !- Key Name 1
   4064     Lights Electric Energy,  !- Report Variable or Meter Name 1
   4065     SPACE2-1 Lights 1,       !- Key Name 2
   4066     Lights Electric Energy,  !- Report Variable or Meter Name 2
   4067     SPACE3-1 Lights 1,       !- Key Name 3
   4068     Lights Electric Energy,  !- Report Variable or Meter Name 3
   4069     SPACE4-1 Lights 1,       !- Key Name 4
   4070     Lights Electric Energy,  !- Report Variable or Meter Name 4
   4071     SPACE5-1 Lights 1,       !- Key Name 5
   4072     Lights Electric Energy;  !- Report Variable or Meter Name 5
   4073 
   4074   Meter:Custom,
   4075     MyBuildingElectric,      !- Name
   4076     Electricity,             !- Fuel Type
   4077     ,                        !- Key Name 1
   4078     Electricity:Building;    !- Report Variable or Meter Name 1
   4079 
   4080   Meter:CustomDecrement,
   4081     MyBuildingOther,         !- Name
   4082     Electricity,             !- Fuel Type
   4083     Electricity:Building,    !- Source Meter Name
   4084     ,                        !- Key Name 1
   4085     MyGeneralLights;         !- Report Variable or Meter Name 1
   4086 
   4087   Output:Surfaces:Drawing,VRML;
   4088 
   4089   OutputControl:Table:Style,
   4090     HTML;                    !- Column Separator
   4091 
   4092   Output:Table:SummaryReports,
   4093     AllSummary,
   4094     ZoneComponentLoadSummary;              !- Report 1 Name
   4095 
   4096   Output:Surfaces:List,Details;
   4097 
  Processing Input Data File (in.idf) -- Complete
  Maximum number of Alpha IDF Args=          29
  Maximum number of Numeric IDF Args=          20
  Number of IDF "Lines"=         419
  Number of Defaulted Fields=          65
  Number of Fields with Defaults=         844
  Number of Autosized Fields=          64
  Number of Autosizable Fields =          93
  Number of Autocalculated Fields=          16
  Number of Autocalculatable Fields =         123
 Getting object=VERSION
 Getting object=HEATBALANCEALGORITHM
 Getting object=TIMESTEP
 Getting object=SIMULATIONCONTROL
 Getting object=OUTPUT:SURFACES:LIST
 Getting object=OUTPUT:SURFACES:DRAWING
 Getting object=OUTPUT:VARIABLEDICTIONARY
 Getting object=OUTPUT:ENERGYMANAGEMENTSYSTEM
 Getting object=BRANCH
 Getting object=CURVE:QUADRATIC
 Getting object=NODELIST
 Getting object=BRANCHLIST
 Getting object=DESIGNSPECIFICATION:OUTDOORAIR
 Getting object=SIZING:PARAMETERS
 Getting object=ZONE
 Getting object=SIZING:ZONE
 Getting object=SIZING:SYSTEM
 Getting object=SIZING:PLANT
 Getting object=OUTPUT:TABLE:SUMMARYREPORTS
 Getting object=SIZINGPERIOD:DESIGNDAY
 Getting object=RUNPERIOD
 Getting object=SITE:LOCATION
 Getting object=SITE:GROUNDTEMPERATURE:BUILDINGSURFACE
 Getting object=OUTPUT:VARIABLE
 Getting object=SCHEDULE:COMPACT
  Processing Schedule Input -- Start
 Getting object=SCHEDULETYPELIMITS
  Processing Schedule Input -- Complete
 Getting object=BUILDING
 Getting object=SURFACECONVECTIONALGORITHM:INSIDE
 Getting object=SURFACECONVECTIONALGORITHM:OUTSIDE
 Getting object=MATERIAL
 Getting object=MATERIAL:NOMASS
 Getting object=MATERIAL:AIRGAP
 Getting object=WINDOWMATERIAL:GLAZING
 Getting object=WINDOWMATERIAL:GAS
 Getting object=CONSTRUCTION
 Getting object=GLOBALGEOMETRYRULES
 Getting object=BUILDINGSURFACE:DETAILED
 Getting object=FENESTRATIONSURFACE:DETAILED
 Getting object=SHADING:ZONE:DETAILED
 Getting object=PIPE:UNDERGROUND
 Getting object=PEOPLE
 Getting object=LIGHTS
 Getting object=ELECTRICEQUIPMENT
 Getting object=ZONEINFILTRATION:DESIGNFLOWRATE
 Getting object=OUTDOORAIR:NODELIST
 Getting object=OUTDOORAIR:NODE
 Getting object=ZONECONTROL:THERMOSTAT
 Getting object=THERMOSTATSETPOINT:SINGLEHEATING
 Getting object=THERMOSTATSETPOINT:SINGLECOOLING
 Getting object=THERMOSTATSETPOINT:DUALSETPOINT
 Getting object=ENERGYMANAGEMENTSYSTEM:SENSOR
 Getting object=ENERGYMANAGEMENTSYSTEM:ACTUATOR
 Getting object=ENERGYMANAGEMENTSYSTEM:GLOBALVARIABLE
 Getting object=ENERGYMANAGEMENTSYSTEM:PROGRAM
 Getting object=ENERGYMANAGEMENTSYSTEM:OUTPUTVARIABLE
 Getting object=ENERGYMANAGEMENTSYSTEM:PROGRAMCALLINGMANAGER
 Getting object=SETPOINTMANAGER:SCHEDULED
 Getting object=SETPOINTMANAGER:MIXEDAIR
 Getting object=PLANTLOOP
 Getting object=AVAILABILITYMANAGER:SCHEDULED
 Getting object=AVAILABILITYMANAGER:LOWTEMPERATURETURNOFF
 Getting object=AVAILABILITYMANAGERASSIGNMENTLIST
 Getting object=CONNECTORLIST
 Getting object=CONNECTOR:SPLITTER
 Getting object=CONNECTOR:MIXER
 Getting object=ZONEHVAC:EQUIPMENTCONNECTIONS
 Getting object=ZONEHVAC:EQUIPMENTLIST
 Getting object=AIRLOOPHVAC:SUPPLYPATH
 Getting object=AIRLOOPHVAC:RETURNPATH
 Getting object=AIRLOOPHVAC:ZONESPLITTER
 Getting object=ZONEHVAC:AIRDISTRIBUTIONUNIT
 Getting object=AIRTERMINAL:SINGLEDUCT:VAV:REHEAT
 Getting object=COIL:HEATING:WATER
 Getting object=COIL:COOLING:WATER
 Getting object=AIRLOOPHVAC:RETURNPLENUM
 Getting object=AIRLOOPHVAC
 Getting object=AIRLOOPHVAC:CONTROLLERLIST
 Getting object=AIRLOOPHVAC:OUTDOORAIRSYSTEM
 Getting object=AIRLOOPHVAC:OUTDOORAIRSYSTEM:EQUIPMENTLIST
 Getting object=OUTDOORAIR:MIXER
 Getting object=CONTROLLER:WATERCOIL
 Getting object=CONTROLLER:OUTDOORAIR
 Getting object=FAN:VARIABLEVOLUME
 Getting object=PIPE:ADIABATIC
 Getting object=BOILER:HOTWATER
 Getting object=CHILLER:ELECTRIC
 Getting object=PLANTEQUIPMENTOPERATIONSCHEMES
 Getting object=PLANTEQUIPMENTOPERATION:COOLINGLOAD
 Getting object=PLANTEQUIPMENTOPERATION:HEATINGLOAD
 Getting object=PLANTEQUIPMENTLIST
 Getting object=PUMP:VARIABLESPEED
