Program Version,EnergyPlus-Darwin-OMP-64 8.0.0.008, YMD=2013.09.20 11:59
